                                  MODFLOW-2005     
      U.S. GEOLOGICAL SURVEY MODULAR FINITE-DIFFERENCE GROUND-WATER FLOW MODEL
                            VERSION 1.11.00 8/8/2013

 LIST FILE: tutorial2MainProcess.list
                         UNIT    2

 OPENING tutorial2MainProcess.dis
 FILE TYPE:DIS   UNIT   11   STATUS:OLD    
 FORMAT:FORMATTED              ACCESS:SEQUENTIAL          

 OPENING tutorial2MainProcess.bas
 FILE TYPE:BAS6   UNIT   13   STATUS:OLD    
 FORMAT:FORMATTED              ACCESS:SEQUENTIAL          

 OPENING tutorial2MainProcess.lpf
 FILE TYPE:LPF   UNIT   15   STATUS:OLD    
 FORMAT:FORMATTED              ACCESS:SEQUENTIAL          

 OPENING tutorial2MainProcess.pcg
 FILE TYPE:PCG   UNIT   27   STATUS:OLD    
 FORMAT:FORMATTED              ACCESS:SEQUENTIAL          

 OPENING tutorial2MainProcess.riv
 FILE TYPE:RIV   UNIT   18   STATUS:OLD    
 FORMAT:FORMATTED              ACCESS:SEQUENTIAL          

 OPENING tutorial2MainProcess.wel
 FILE TYPE:WEL   UNIT   20   STATUS:OLD    
 FORMAT:FORMATTED              ACCESS:SEQUENTIAL          

 OPENING tutorial2MainProcess.oc
 FILE TYPE:OC   UNIT   14   STATUS:OLD    
 FORMAT:FORMATTED              ACCESS:SEQUENTIAL          

 OPENING tutorial2MainProcess.hds
 FILE TYPE:DATA(BINARY)   UNIT   51   STATUS:REPLACE
 FORMAT:UNFORMATTED            ACCESS:STREAM              

 OPENING tutorial2MainProcess.ddn
 FILE TYPE:DATA(BINARY)   UNIT   52   STATUS:REPLACE
 FORMAT:UNFORMATTED            ACCESS:STREAM              

 OPENING tutorial2MainProcess.cbc
 FILE TYPE:DATA(BINARY)   UNIT   53   STATUS:REPLACE
 FORMAT:UNFORMATTED            ACCESS:STREAM              

 BAS -- BASIC PACKAGE, VERSION 7, 5/2/2005 INPUT READ FROM UNIT   13

 MODFLOW was compiled using mixed precision
 Precision of REAL variables:           6
 Precision of DOUBLE PRECISION variables:          15

 DISCRETIZATION INPUT DATA READ FROM UNIT   11
 # Discretization file for MODFLOW, generated by Flopy.
    3 LAYERS        10 ROWS        10 COLUMNS
    3 STRESS PERIOD(S) IN SIMULATION
 MODEL TIME UNIT IS DAYS
 MODEL LENGTH UNIT IS METERS
  Confining bed flag for each layer:
   0   0   0

                     DELR =   100.000    

                     DELC =   100.000    

 TOP ELEVATION OF LAYER 1 =   0.00000    

   MODEL LAYER BOTTOM EL. =  -16.6667     FOR LAYER   1

   MODEL LAYER BOTTOM EL. =  -33.3333     FOR LAYER   2

   MODEL LAYER BOTTOM EL. =  -50.0000     FOR LAYER   3


 STRESS PERIOD     LENGTH       TIME STEPS     MULTIPLIER FOR DELT    SS FLAG
 ----------------------------------------------------------------------------
        1         1.000000          1                    1.000         SS
        2         100.0000        100                    1.000         TR
        3         100.0000        100                    1.000         TR

 COMBINED STEADY-STATE AND TRANSIENT SIMULATION




 # Basic package file for MODFLOW, generated by Flopy.                           
 THE FREE FORMAT OPTION HAS BEEN SELECTED



                     BOUNDARY ARRAY FOR LAYER   1
 READING ON UNIT   13 WITH FORMAT: (10I10)             



                     BOUNDARY ARRAY FOR LAYER   2
 READING ON UNIT   13 WITH FORMAT: (10I10)             



                     BOUNDARY ARRAY FOR LAYER   3
 READING ON UNIT   13 WITH FORMAT: (10I10)             

 AQUIFER HEAD WILL BE SET TO  -999.99     AT ALL NO-FLOW NODES (IBOUND=0).



                       INITIAL HEAD FOR LAYER   1
 READING ON UNIT   13 WITH FORMAT: (10G15.6)           



                       INITIAL HEAD FOR LAYER   2
 READING ON UNIT   13 WITH FORMAT: (10G15.6)           



                       INITIAL HEAD FOR LAYER   3
 READING ON UNIT   13 WITH FORMAT: (10G15.6)           
 # Output control package file for MODFLOW, generated by Flopy.

 OUTPUT CONTROL IS SPECIFIED ONLY AT TIME STEPS FOR WHICH OUTPUT IS DESIRED
 COMPACT CELL-BY-CELL BUDGET FILES WILL BE WRITTEN
 HEAD PRINT FORMAT CODE IS   0    DRAWDOWN PRINT FORMAT CODE IS   0
 HEADS WILL BE SAVED ON UNIT   51    DRAWDOWNS WILL BE SAVED ON UNIT   52

 LPF -- LAYER-PROPERTY FLOW PACKAGE, VERSION 7, 5/2/2005
         INPUT READ FROM UNIT   15
 # LPF for MODFLOW, generated by Flopy.
 CELL-BY-CELL FLOWS WILL BE SAVED ON UNIT   53
 HEAD AT CELLS THAT CONVERT TO DRY= -1.00000E+30
 No named parameters

   LAYER FLAGS:
 LAYER       LAYTYP        LAYAVG         CHANI        LAYVKA        LAYWET
 ---------------------------------------------------------------------------
    1             1             0     1.000E+00             0             0
    2             1             0     1.000E+00             0             0
    3             1             0     1.000E+00             0             0

   INTERPRETATION OF LAYER FLAGS:
                        INTERBLOCK     HORIZONTAL    DATA IN
         LAYER TYPE   TRANSMISSIVITY   ANISOTROPY   ARRAY VKA   WETTABILITY
 LAYER      (LAYTYP)      (LAYAVG)       (CHANI)      (LAYVKA)      (LAYWET)
 ---------------------------------------------------------------------------
    1   CONVERTIBLE      HARMONIC     1.000E+00    VERTICAL K  NON-WETTABLE
    2   CONVERTIBLE      HARMONIC     1.000E+00    VERTICAL K  NON-WETTABLE
    3   CONVERTIBLE      HARMONIC     1.000E+00    VERTICAL K  NON-WETTABLE

 WETTING CAPABILITY IS NOT ACTIVE IN ANY LAYER

    HYD. COND. ALONG ROWS =   1.00000     FOR LAYER   1

      VERTICAL HYD. COND. =   1.00000     FOR LAYER   1

         SPECIFIC STORAGE =  1.000000E-04 FOR LAYER   1

           SPECIFIC YIELD =  0.100000     FOR LAYER   1

    HYD. COND. ALONG ROWS =   1.00000     FOR LAYER   2

      VERTICAL HYD. COND. =   1.00000     FOR LAYER   2

         SPECIFIC STORAGE =  1.000000E-04 FOR LAYER   2

           SPECIFIC YIELD =  0.100000     FOR LAYER   2

    HYD. COND. ALONG ROWS =   1.00000     FOR LAYER   3

      VERTICAL HYD. COND. =   1.00000     FOR LAYER   3

         SPECIFIC STORAGE =  1.000000E-04 FOR LAYER   3

           SPECIFIC YIELD =  0.100000     FOR LAYER   3

 WEL -- WELL PACKAGE, VERSION 7, 5/2/2005 INPUT READ FROM UNIT   20
 # Well file for MODFLOW, generated by Flopy.
 No named parameters
 MAXIMUM OF      1 ACTIVE WELLS AT ONE TIME


     0 Well parameters

 RIV -- RIVER PACKAGE, VERSION 7, 5/2/2005 INPUT READ FROM UNIT   18
 # RIV for MODFLOW, generated by Flopy.
 No named parameters
 MAXIMUM OF     60 ACTIVE RIVER REACHES AT ONE TIME


     0 River parameters

 PCG -- CONJUGATE-GRADIENT SOLUTION PACKAGE, VERSION 7, 5/2/2005
 # PCG for MODFLOW, generated by Flopy.
 MAXIMUM OF     50 CALLS OF SOLUTION ROUTINE
 MAXIMUM OF     30 INTERNAL ITERATIONS PER CALL TO SOLUTION ROUTINE
 MATRIX PRECONDITIONING TYPE :    1



                                    SOLUTION BY THE CONJUGATE-GRADIENT METHOD
                                   -------------------------------------------
                    MAXIMUM NUMBER OF CALLS TO PCG ROUTINE =       50
                        MAXIMUM ITERATIONS PER CALL TO PCG =       30
                               MATRIX PRECONDITIONING TYPE =        1
        RELAXATION FACTOR (ONLY USED WITH PRECOND. TYPE 1) =    0.10000E+01
 PARAMETER OF POLYNOMIAL PRECOND. = 2 (2) OR IS CALCULATED :        0
                         HEAD CHANGE CRITERION FOR CLOSURE =    0.10000E-04
                     RESIDUAL CHANGE CRITERION FOR CLOSURE =    0.10000E-04
            PCG HEAD AND RESIDUAL CHANGE PRINTOUT INTERVAL =      999
     PRINTING FROM SOLVER IS LIMITED(1) OR SUPPRESSED (>1) =        3
                            STEADY-STATE DAMPING PARAMETER =    0.10000E+01
                               TRANSIENT DAMPING PARAMETER =    0.10000E+01
1
                            STRESS PERIOD NO.    1, LENGTH =   1.000000    
                            -----------------------------------------------

                              NUMBER OF TIME STEPS =     1

                               MULTIPLIER FOR DELT =     1.000

                            INITIAL TIME STEP SIZE =   1.000000    

 WELL NO.  LAYER   ROW   COL   STRESS RATE         
 --------------------------------------------------
      1      1      5      5       0.000    

      1 WELL 

 REACH NO.  LAYER   ROW   COL     STAGE      CONDUCTANCE     BOTTOM EL.         
 -------------------------------------------------------------------------------
      1      1      1      1       10.00           6000.          -5.000    
      2      1      1     10       10.00           6000.          -5.000    
      3      1      2      1       10.00           6000.          -5.000    
      4      1      2     10       10.00           6000.          -5.000    
      5      1      3      1       10.00           6000.          -5.000    
      6      1      3     10       10.00           6000.          -5.000    
      7      1      4      1       10.00           6000.          -5.000    
      8      1      4     10       10.00           6000.          -5.000    
      9      1      5      1       10.00           6000.          -5.000    
     10      1      5     10       10.00           6000.          -5.000    
     11      1      6      1       10.00           6000.          -5.000    
     12      1      6     10       10.00           6000.          -5.000    
     13      1      7      1       10.00           6000.          -5.000    
     14      1      7     10       10.00           6000.          -5.000    
     15      1      8      1       10.00           6000.          -5.000    
     16      1      8     10       10.00           6000.          -5.000    
     17      1      9      1       10.00           6000.          -5.000    
     18      1      9     10       10.00           6000.          -5.000    
     19      1     10      1       10.00           6000.          -5.000    
     20      1     10     10       10.00           6000.          -5.000    
     21      2      1      1       10.00           6000.          -5.000    
     22      2      1     10       10.00           6000.          -5.000    
     23      2      2      1       10.00           6000.          -5.000    
     24      2      2     10       10.00           6000.          -5.000    
     25      2      3      1       10.00           6000.          -5.000    
     26      2      3     10       10.00           6000.          -5.000    
     27      2      4      1       10.00           6000.          -5.000    
     28      2      4     10       10.00           6000.          -5.000    
     29      2      5      1       10.00           6000.          -5.000    
     30      2      5     10       10.00           6000.          -5.000    
     31      2      6      1       10.00           6000.          -5.000    
     32      2      6     10       10.00           6000.          -5.000    
     33      2      7      1       10.00           6000.          -5.000    
     34      2      7     10       10.00           6000.          -5.000    
     35      2      8      1       10.00           6000.          -5.000    
     36      2      8     10       10.00           6000.          -5.000    
     37      2      9      1       10.00           6000.          -5.000    
     38      2      9     10       10.00           6000.          -5.000    
     39      2     10      1       10.00           6000.          -5.000    
     40      2     10     10       10.00           6000.          -5.000    
     41      3      1      1       10.00           6000.          -5.000    
     42      3      1     10       10.00           6000.          -5.000    
     43      3      2      1       10.00           6000.          -5.000    
     44      3      2     10       10.00           6000.          -5.000    
     45      3      3      1       10.00           6000.          -5.000    
     46      3      3     10       10.00           6000.          -5.000    
     47      3      4      1       10.00           6000.          -5.000    
     48      3      4     10       10.00           6000.          -5.000    
     49      3      5      1       10.00           6000.          -5.000    
     50      3      5     10       10.00           6000.          -5.000    
     51      3      6      1       10.00           6000.          -5.000    
     52      3      6     10       10.00           6000.          -5.000    
     53      3      7      1       10.00           6000.          -5.000    
     54      3      7     10       10.00           6000.          -5.000    
     55      3      8      1       10.00           6000.          -5.000    
     56      3      8     10       10.00           6000.          -5.000    
     57      3      9      1       10.00           6000.          -5.000    
     58      3      9     10       10.00           6000.          -5.000    
     59      3     10      1       10.00           6000.          -5.000    
     60      3     10     10       10.00           6000.          -5.000    

     60 RIVER REACHES

 SOLVING FOR HEAD 

 OUTPUT CONTROL FOR STRESS PERIOD    1   TIME STEP    1
    SAVE HEAD FOR ALL LAYERS
    SAVE DRAWDOWN FOR ALL LAYERS
    SAVE BUDGET
    PRINT HEAD FOR ALL LAYERS
    PRINT BUDGET
 UBDSV2 SAVING "   CONSTANT HEAD" ON UNIT  53 AT TIME STEP  1, STRESS PERIOD   1
 UBDSV1 SAVING "FLOW RIGHT FACE " ON UNIT  53 AT TIME STEP  1, STRESS PERIOD   1
 UBDSV1 SAVING "FLOW FRONT FACE " ON UNIT  53 AT TIME STEP  1, STRESS PERIOD   1
 UBDSV1 SAVING "FLOW LOWER FACE " ON UNIT  53 AT TIME STEP  1, STRESS PERIOD   1
1
              HEAD IN LAYER   1 AT END OF TIME STEP   1 IN STRESS PERIOD    1
  ---------------------------------------------------------------------------

            1           2           3           4           5           6           7           8           9          10
 ........................................................................................................................
   1    10.00       10.00       10.00       10.00       10.00       10.00       10.00       10.00       10.00       10.00    
   2    10.00       10.00       10.00       10.00       10.00       10.00       10.00       10.00       10.00       10.00    
   3    10.00       10.00       10.00       10.00       10.00       10.00       10.00       10.00       10.00       10.00    
   4    10.00       10.00       10.00       10.00       10.00       10.00       10.00       10.00       10.00       10.00    
   5    10.00       10.00       10.00       10.00       10.00       10.00       10.00       10.00       10.00       10.00    
   6    10.00       10.00       10.00       10.00       10.00       10.00       10.00       10.00       10.00       10.00    
   7    10.00       10.00       10.00       10.00       10.00       10.00       10.00       10.00       10.00       10.00    
   8    10.00       10.00       10.00       10.00       10.00       10.00       10.00       10.00       10.00       10.00    
   9    10.00       10.00       10.00       10.00       10.00       10.00       10.00       10.00       10.00       10.00    
  10    10.00       10.00       10.00       10.00       10.00       10.00       10.00       10.00       10.00       10.00    
1
              HEAD IN LAYER   2 AT END OF TIME STEP   1 IN STRESS PERIOD    1
  ---------------------------------------------------------------------------

            1           2           3           4           5           6           7           8           9          10
 ........................................................................................................................
   1    10.00       10.00       10.00       10.00       10.00       10.00       10.00       10.00       10.00       10.00    
   2    10.00       10.00       10.00       10.00       10.00       10.00       10.00       10.00       10.00       10.00    
   3    10.00       10.00       10.00       10.00       10.00       10.00       10.00       10.00       10.00       10.00    
   4    10.00       10.00       10.00       10.00       10.00       10.00       10.00       10.00       10.00       10.00    
   5    10.00       10.00       10.00       10.00       10.00       10.00       10.00       10.00       10.00       10.00    
   6    10.00       10.00       10.00       10.00       10.00       10.00       10.00       10.00       10.00       10.00    
   7    10.00       10.00       10.00       10.00       10.00       10.00       10.00       10.00       10.00       10.00    
   8    10.00       10.00       10.00       10.00       10.00       10.00       10.00       10.00       10.00       10.00    
   9    10.00       10.00       10.00       10.00       10.00       10.00       10.00       10.00       10.00       10.00    
  10    10.00       10.00       10.00       10.00       10.00       10.00       10.00       10.00       10.00       10.00    
1
              HEAD IN LAYER   3 AT END OF TIME STEP   1 IN STRESS PERIOD    1
  ---------------------------------------------------------------------------

            1           2           3           4           5           6           7           8           9          10
 ........................................................................................................................
   1    10.00       10.00       10.00       10.00       10.00       10.00       10.00       10.00       10.00       10.00    
   2    10.00       10.00       10.00       10.00       10.00       10.00       10.00       10.00       10.00       10.00    
   3    10.00       10.00       10.00       10.00       10.00       10.00       10.00       10.00       10.00       10.00    
   4    10.00       10.00       10.00       10.00       10.00       10.00       10.00       10.00       10.00       10.00    
   5    10.00       10.00       10.00       10.00       10.00       10.00       10.00       10.00       10.00       10.00    
   6    10.00       10.00       10.00       10.00       10.00       10.00       10.00       10.00       10.00       10.00    
   7    10.00       10.00       10.00       10.00       10.00       10.00       10.00       10.00       10.00       10.00    
   8    10.00       10.00       10.00       10.00       10.00       10.00       10.00       10.00       10.00       10.00    
   9    10.00       10.00       10.00       10.00       10.00       10.00       10.00       10.00       10.00       10.00    
  10    10.00       10.00       10.00       10.00       10.00       10.00       10.00       10.00       10.00       10.00    

 HEAD WILL BE SAVED ON UNIT   51 AT END OF TIME STEP    1, STRESS PERIOD    1

 DRAWDOWN WILL BE SAVED ON UNIT   52 AT END OF TIME STEP    1, STRESS PERIOD    1
1
  VOLUMETRIC BUDGET FOR ENTIRE MODEL AT END OF TIME STEP    1, STRESS PERIOD   1
  ------------------------------------------------------------------------------

     CUMULATIVE VOLUMES      L**3       RATES FOR THIS TIME STEP      L**3/T
     ------------------                 ------------------------

           IN:                                      IN:
           ---                                      ---
             STORAGE =           0.0000               STORAGE =           0.0000
       CONSTANT HEAD =           0.0000         CONSTANT HEAD =           0.0000
               WELLS =           0.0000                 WELLS =           0.0000
       RIVER LEAKAGE =           0.0000         RIVER LEAKAGE =           0.0000

            TOTAL IN =           0.0000              TOTAL IN =           0.0000

          OUT:                                     OUT:
          ----                                     ----
             STORAGE =           0.0000               STORAGE =           0.0000
       CONSTANT HEAD =           0.0000         CONSTANT HEAD =           0.0000
               WELLS =           0.0000                 WELLS =           0.0000
       RIVER LEAKAGE =           0.0000         RIVER LEAKAGE =           0.0000

           TOTAL OUT =           0.0000             TOTAL OUT =           0.0000

            IN - OUT =           0.0000              IN - OUT =           0.0000

 PERCENT DISCREPANCY =           0.00     PERCENT DISCREPANCY =           0.00






         TIME SUMMARY AT END OF TIME STEP    1 IN STRESS PERIOD    1
                    SECONDS     MINUTES      HOURS       DAYS        YEARS
                    -----------------------------------------------------------
   TIME STEP LENGTH  86400.      1440.0      24.000      1.0000     2.73785E-03
 STRESS PERIOD TIME  86400.      1440.0      24.000      1.0000     2.73785E-03
         TOTAL TIME  86400.      1440.0      24.000      1.0000     2.73785E-03
1
1
                            STRESS PERIOD NO.    2, LENGTH =   100.0000    
                            -----------------------------------------------

                              NUMBER OF TIME STEPS =   100

                               MULTIPLIER FOR DELT =     1.000

                            INITIAL TIME STEP SIZE =   1.000000    

 WELL NO.  LAYER   ROW   COL   STRESS RATE         
 --------------------------------------------------
      1      1      5      5       0.000    

      1 WELL 

 REACH NO.  LAYER   ROW   COL     STAGE      CONDUCTANCE     BOTTOM EL.         
 -------------------------------------------------------------------------------
      1      1      1      1       10.00           6000.          -5.000    
      2      1      1     10       0.000           5000.          -5.000    
      3      1      2      1       10.00           6000.          -5.000    
      4      1      2     10       0.000           5000.          -5.000    
      5      1      3      1       10.00           6000.          -5.000    
      6      1      3     10       0.000           5000.          -5.000    
      7      1      4      1       10.00           6000.          -5.000    
      8      1      4     10       0.000           5000.          -5.000    
      9      1      5      1       10.00           6000.          -5.000    
     10      1      5     10       0.000           5000.          -5.000    
     11      1      6      1       10.00           6000.          -5.000    
     12      1      6     10       0.000           5000.          -5.000    
     13      1      7      1       10.00           6000.          -5.000    
     14      1      7     10       0.000           5000.          -5.000    
     15      1      8      1       10.00           6000.          -5.000    
     16      1      8     10       0.000           5000.          -5.000    
     17      1      9      1       10.00           6000.          -5.000    
     18      1      9     10       0.000           5000.          -5.000    
     19      1     10      1       10.00           6000.          -5.000    
     20      1     10     10       0.000           5000.          -5.000    
     21      2      1      1       10.00           6000.          -5.000    
     22      2      1     10       0.000           5000.          -5.000    
     23      2      2      1       10.00           6000.          -5.000    
     24      2      2     10       0.000           5000.          -5.000    
     25      2      3      1       10.00           6000.          -5.000    
     26      2      3     10       0.000           5000.          -5.000    
     27      2      4      1       10.00           6000.          -5.000    
     28      2      4     10       0.000           5000.          -5.000    
     29      2      5      1       10.00           6000.          -5.000    
     30      2      5     10       0.000           5000.          -5.000    
     31      2      6      1       10.00           6000.          -5.000    
     32      2      6     10       0.000           5000.          -5.000    
     33      2      7      1       10.00           6000.          -5.000    
     34      2      7     10       0.000           5000.          -5.000    
     35      2      8      1       10.00           6000.          -5.000    
     36      2      8     10       0.000           5000.          -5.000    
     37      2      9      1       10.00           6000.          -5.000    
     38      2      9     10       0.000           5000.          -5.000    
     39      2     10      1       10.00           6000.          -5.000    
     40      2     10     10       0.000           5000.          -5.000    
     41      3      1      1       10.00           6000.          -5.000    
     42      3      1     10       0.000           5000.          -5.000    
     43      3      2      1       10.00           6000.          -5.000    
     44      3      2     10       0.000           5000.          -5.000    
     45      3      3      1       10.00           6000.          -5.000    
     46      3      3     10       0.000           5000.          -5.000    
     47      3      4      1       10.00           6000.          -5.000    
     48      3      4     10       0.000           5000.          -5.000    
     49      3      5      1       10.00           6000.          -5.000    
     50      3      5     10       0.000           5000.          -5.000    
     51      3      6      1       10.00           6000.          -5.000    
     52      3      6     10       0.000           5000.          -5.000    
     53      3      7      1       10.00           6000.          -5.000    
     54      3      7     10       0.000           5000.          -5.000    
     55      3      8      1       10.00           6000.          -5.000    
     56      3      8     10       0.000           5000.          -5.000    
     57      3      9      1       10.00           6000.          -5.000    
     58      3      9     10       0.000           5000.          -5.000    
     59      3     10      1       10.00           6000.          -5.000    
     60      3     10     10       0.000           5000.          -5.000    

     60 RIVER REACHES

 SOLVING FOR HEAD 

 OUTPUT CONTROL FOR STRESS PERIOD    2   TIME STEP    1
    SAVE HEAD FOR ALL LAYERS
    SAVE DRAWDOWN FOR ALL LAYERS
    SAVE BUDGET
    PRINT HEAD FOR ALL LAYERS
    PRINT BUDGET
 UBDSV1 SAVING "         STORAGE" ON UNIT  53 AT TIME STEP  1, STRESS PERIOD   2
 UBDSV2 SAVING "   CONSTANT HEAD" ON UNIT  53 AT TIME STEP  1, STRESS PERIOD   2
 UBDSV1 SAVING "FLOW RIGHT FACE " ON UNIT  53 AT TIME STEP  1, STRESS PERIOD   2
 UBDSV1 SAVING "FLOW FRONT FACE " ON UNIT  53 AT TIME STEP  1, STRESS PERIOD   2
 UBDSV1 SAVING "FLOW LOWER FACE " ON UNIT  53 AT TIME STEP  1, STRESS PERIOD   2
1
              HEAD IN LAYER   1 AT END OF TIME STEP   1 IN STRESS PERIOD    2
  ---------------------------------------------------------------------------

            1           2           3           4           5           6           7           8           9          10
 ........................................................................................................................
   1    10.00       9.996       9.988       9.969       9.919       9.788       9.446       8.549       6.201      5.3645E-02
   2    10.00       9.996       9.988       9.969       9.919       9.788       9.446       8.549       6.201      5.3645E-02
   3    10.00       9.996       9.988       9.969       9.919       9.788       9.446       8.549       6.201      5.3645E-02
   4    10.00       9.996       9.988       9.969       9.919       9.788       9.446       8.549       6.201      5.3645E-02
   5    10.00       9.996       9.988       9.969       9.919       9.788       9.446       8.549       6.201      5.3645E-02
   6    10.00       9.996       9.988       9.969       9.919       9.788       9.446       8.549       6.201      5.3645E-02
   7    10.00       9.996       9.988       9.969       9.919       9.788       9.446       8.549       6.201      5.3645E-02
   8    10.00       9.996       9.988       9.969       9.919       9.788       9.446       8.549       6.201      5.3645E-02
   9    10.00       9.996       9.988       9.969       9.919       9.788       9.446       8.549       6.201      5.3645E-02
  10    10.00       9.996       9.988       9.969       9.919       9.788       9.446       8.549       6.201      5.3645E-02
1
              HEAD IN LAYER   2 AT END OF TIME STEP   1 IN STRESS PERIOD    2
  ---------------------------------------------------------------------------

            1           2           3           4           5           6           7           8           9          10
 ........................................................................................................................
   1    10.00       9.996       9.988       9.969       9.919       9.788       9.446       8.549       6.201      5.3645E-02
   2    10.00       9.996       9.988       9.969       9.919       9.788       9.446       8.549       6.201      5.3645E-02
   3    10.00       9.996       9.988       9.969       9.919       9.788       9.446       8.549       6.201      5.3645E-02
   4    10.00       9.996       9.988       9.969       9.919       9.788       9.446       8.549       6.201      5.3645E-02
   5    10.00       9.996       9.988       9.969       9.919       9.788       9.446       8.549       6.201      5.3645E-02
   6    10.00       9.996       9.988       9.969       9.919       9.788       9.446       8.549       6.201      5.3645E-02
   7    10.00       9.996       9.988       9.969       9.919       9.788       9.446       8.549       6.201      5.3645E-02
   8    10.00       9.996       9.988       9.969       9.919       9.788       9.446       8.549       6.201      5.3645E-02
   9    10.00       9.996       9.988       9.969       9.919       9.788       9.446       8.549       6.201      5.3645E-02
  10    10.00       9.996       9.988       9.969       9.919       9.788       9.446       8.549       6.201      5.3645E-02
1
              HEAD IN LAYER   3 AT END OF TIME STEP   1 IN STRESS PERIOD    2
  ---------------------------------------------------------------------------

            1           2           3           4           5           6           7           8           9          10
 ........................................................................................................................
   1    10.00       9.996       9.988       9.969       9.919       9.788       9.446       8.549       6.201      5.3645E-02
   2    10.00       9.996       9.988       9.969       9.919       9.788       9.446       8.549       6.201      5.3645E-02
   3    10.00       9.996       9.988       9.969       9.919       9.788       9.446       8.549       6.201      5.3645E-02
   4    10.00       9.996       9.988       9.969       9.919       9.788       9.446       8.549       6.201      5.3645E-02
   5    10.00       9.996       9.988       9.969       9.919       9.788       9.446       8.549       6.201      5.3645E-02
   6    10.00       9.996       9.988       9.969       9.919       9.788       9.446       8.549       6.201      5.3645E-02
   7    10.00       9.996       9.988       9.969       9.919       9.788       9.446       8.549       6.201      5.3645E-02
   8    10.00       9.996       9.988       9.969       9.919       9.788       9.446       8.549       6.201      5.3645E-02
   9    10.00       9.996       9.988       9.969       9.919       9.788       9.446       8.549       6.201      5.3645E-02
  10    10.00       9.996       9.988       9.969       9.919       9.788       9.446       8.549       6.201      5.3645E-02

 HEAD WILL BE SAVED ON UNIT   51 AT END OF TIME STEP    1, STRESS PERIOD    2

 DRAWDOWN WILL BE SAVED ON UNIT   52 AT END OF TIME STEP    1, STRESS PERIOD    2
1
  VOLUMETRIC BUDGET FOR ENTIRE MODEL AT END OF TIME STEP    1, STRESS PERIOD   2
  ------------------------------------------------------------------------------

     CUMULATIVE VOLUMES      L**3       RATES FOR THIS TIME STEP      L**3/T
     ------------------                 ------------------------

           IN:                                      IN:
           ---                                      ---
             STORAGE =        8044.8525               STORAGE =        8044.8525
       CONSTANT HEAD =           0.0000         CONSTANT HEAD =           0.0000
               WELLS =           0.0000                 WELLS =           0.0000
       RIVER LEAKAGE =           1.8286         RIVER LEAKAGE =           1.8286

            TOTAL IN =        8046.6812              TOTAL IN =        8046.6812

          OUT:                                     OUT:
          ----                                     ----
             STORAGE =           0.0000               STORAGE =           0.0000
       CONSTANT HEAD =           0.0000         CONSTANT HEAD =           0.0000
               WELLS =           0.0000                 WELLS =           0.0000
       RIVER LEAKAGE =        8046.7705         RIVER LEAKAGE =        8046.7705

           TOTAL OUT =        8046.7705             TOTAL OUT =        8046.7705

            IN - OUT =      -8.9355E-02              IN - OUT =      -8.9355E-02

 PERCENT DISCREPANCY =          -0.00     PERCENT DISCREPANCY =          -0.00






         TIME SUMMARY AT END OF TIME STEP    1 IN STRESS PERIOD    2
                    SECONDS     MINUTES      HOURS       DAYS        YEARS
                    -----------------------------------------------------------
   TIME STEP LENGTH  86400.      1440.0      24.000      1.0000     2.73785E-03
 STRESS PERIOD TIME  86400.      1440.0      24.000      1.0000     2.73785E-03
         TOTAL TIME 1.72800E+05  2880.0      48.000      2.0000     5.47570E-03
1

 SOLVING FOR HEAD 

 OUTPUT CONTROL FOR STRESS PERIOD    2   TIME STEP    2
    SAVE HEAD FOR ALL LAYERS
    SAVE DRAWDOWN FOR ALL LAYERS
    SAVE BUDGET
    PRINT HEAD FOR ALL LAYERS
    PRINT BUDGET
 UBDSV1 SAVING "         STORAGE" ON UNIT  53 AT TIME STEP  2, STRESS PERIOD   2
 UBDSV2 SAVING "   CONSTANT HEAD" ON UNIT  53 AT TIME STEP  2, STRESS PERIOD   2
 UBDSV1 SAVING "FLOW RIGHT FACE " ON UNIT  53 AT TIME STEP  2, STRESS PERIOD   2
 UBDSV1 SAVING "FLOW FRONT FACE " ON UNIT  53 AT TIME STEP  2, STRESS PERIOD   2
 UBDSV1 SAVING "FLOW LOWER FACE " ON UNIT  53 AT TIME STEP  2, STRESS PERIOD   2
1
              HEAD IN LAYER   1 AT END OF TIME STEP   2 IN STRESS PERIOD    2
  ---------------------------------------------------------------------------

            1           2           3           4           5           6           7           8           9          10
 ........................................................................................................................
   1    10.00       9.983       9.953       9.887       9.738       9.409       8.700       7.245       4.487      1.5035E-02
   2    10.00       9.983       9.953       9.887       9.738       9.409       8.700       7.245       4.487      1.5035E-02
   3    10.00       9.983       9.953       9.887       9.738       9.409       8.700       7.245       4.487      1.5035E-02
   4    10.00       9.983       9.953       9.887       9.738       9.409       8.700       7.245       4.487      1.5035E-02
   5    10.00       9.983       9.953       9.887       9.738       9.409       8.700       7.245       4.487      1.5035E-02
   6    10.00       9.983       9.953       9.887       9.738       9.409       8.700       7.245       4.487      1.5035E-02
   7    10.00       9.983       9.953       9.887       9.738       9.409       8.700       7.245       4.487      1.5035E-02
   8    10.00       9.983       9.953       9.887       9.738       9.409       8.700       7.245       4.487      1.5035E-02
   9    10.00       9.983       9.953       9.887       9.738       9.409       8.700       7.245       4.487      1.5035E-02
  10    10.00       9.983       9.953       9.887       9.738       9.409       8.700       7.245       4.487      1.5035E-02
1
              HEAD IN LAYER   2 AT END OF TIME STEP   2 IN STRESS PERIOD    2
  ---------------------------------------------------------------------------

            1           2           3           4           5           6           7           8           9          10
 ........................................................................................................................
   1    10.00       9.983       9.953       9.887       9.738       9.409       8.700       7.245       4.487      1.5035E-02
   2    10.00       9.983       9.953       9.887       9.738       9.409       8.700       7.245       4.487      1.5035E-02
   3    10.00       9.983       9.953       9.887       9.738       9.409       8.700       7.245       4.487      1.5035E-02
   4    10.00       9.983       9.953       9.887       9.738       9.409       8.700       7.245       4.487      1.5035E-02
   5    10.00       9.983       9.953       9.887       9.738       9.409       8.700       7.245       4.487      1.5035E-02
   6    10.00       9.983       9.953       9.887       9.738       9.409       8.700       7.245       4.487      1.5035E-02
   7    10.00       9.983       9.953       9.887       9.738       9.409       8.700       7.245       4.487      1.5035E-02
   8    10.00       9.983       9.953       9.887       9.738       9.409       8.700       7.245       4.487      1.5035E-02
   9    10.00       9.983       9.953       9.887       9.738       9.409       8.700       7.245       4.487      1.5035E-02
  10    10.00       9.983       9.953       9.887       9.738       9.409       8.700       7.245       4.487      1.5035E-02
1
              HEAD IN LAYER   3 AT END OF TIME STEP   2 IN STRESS PERIOD    2
  ---------------------------------------------------------------------------

            1           2           3           4           5           6           7           8           9          10
 ........................................................................................................................
   1    10.00       9.983       9.953       9.887       9.738       9.409       8.700       7.245       4.487      1.5035E-02
   2    10.00       9.983       9.953       9.887       9.738       9.409       8.700       7.245       4.487      1.5035E-02
   3    10.00       9.983       9.953       9.887       9.738       9.409       8.700       7.245       4.487      1.5035E-02
   4    10.00       9.983       9.953       9.887       9.738       9.409       8.700       7.245       4.487      1.5035E-02
   5    10.00       9.983       9.953       9.887       9.738       9.409       8.700       7.245       4.487      1.5035E-02
   6    10.00       9.983       9.953       9.887       9.738       9.409       8.700       7.245       4.487      1.5035E-02
   7    10.00       9.983       9.953       9.887       9.738       9.409       8.700       7.245       4.487      1.5035E-02
   8    10.00       9.983       9.953       9.887       9.738       9.409       8.700       7.245       4.487      1.5035E-02
   9    10.00       9.983       9.953       9.887       9.738       9.409       8.700       7.245       4.487      1.5035E-02
  10    10.00       9.983       9.953       9.887       9.738       9.409       8.700       7.245       4.487      1.5035E-02

 HEAD WILL BE SAVED ON UNIT   51 AT END OF TIME STEP    2, STRESS PERIOD    2

 DRAWDOWN WILL BE SAVED ON UNIT   52 AT END OF TIME STEP    2, STRESS PERIOD    2
1
  VOLUMETRIC BUDGET FOR ENTIRE MODEL AT END OF TIME STEP    2, STRESS PERIOD   2
  ------------------------------------------------------------------------------

     CUMULATIVE VOLUMES      L**3       RATES FOR THIS TIME STEP      L**3/T
     ------------------                 ------------------------

           IN:                                      IN:
           ---                                      ---
             STORAGE =       10291.6719               STORAGE =        2246.8196
       CONSTANT HEAD =           0.0000         CONSTANT HEAD =           0.0000
               WELLS =           0.0000                 WELLS =           0.0000
       RIVER LEAKAGE =          10.2275         RIVER LEAKAGE =           8.3989

            TOTAL IN =       10301.8994              TOTAL IN =        2255.2185

          OUT:                                     OUT:
          ----                                     ----
             STORAGE =           0.0000               STORAGE =           0.0000
       CONSTANT HEAD =           0.0000         CONSTANT HEAD =           0.0000
               WELLS =           0.0000                 WELLS =           0.0000
       RIVER LEAKAGE =       10302.0820         RIVER LEAKAGE =        2255.3115

           TOTAL OUT =       10302.0820             TOTAL OUT =        2255.3115

            IN - OUT =          -0.1826              IN - OUT =      -9.3018E-02

 PERCENT DISCREPANCY =          -0.00     PERCENT DISCREPANCY =          -0.00






         TIME SUMMARY AT END OF TIME STEP    2 IN STRESS PERIOD    2
                    SECONDS     MINUTES      HOURS       DAYS        YEARS
                    -----------------------------------------------------------
   TIME STEP LENGTH  86400.      1440.0      24.000      1.0000     2.73785E-03
 STRESS PERIOD TIME 1.72800E+05  2880.0      48.000      2.0000     5.47570E-03
         TOTAL TIME 2.59200E+05  4320.0      72.000      3.0000     8.21355E-03
1

 SOLVING FOR HEAD 

 OUTPUT CONTROL FOR STRESS PERIOD    2   TIME STEP    3
    SAVE HEAD FOR ALL LAYERS
    SAVE DRAWDOWN FOR ALL LAYERS
    SAVE BUDGET
    PRINT HEAD FOR ALL LAYERS
    PRINT BUDGET
 UBDSV1 SAVING "         STORAGE" ON UNIT  53 AT TIME STEP  3, STRESS PERIOD   2
 UBDSV2 SAVING "   CONSTANT HEAD" ON UNIT  53 AT TIME STEP  3, STRESS PERIOD   2
 UBDSV1 SAVING "FLOW RIGHT FACE " ON UNIT  53 AT TIME STEP  3, STRESS PERIOD   2
 UBDSV1 SAVING "FLOW FRONT FACE " ON UNIT  53 AT TIME STEP  3, STRESS PERIOD   2
 UBDSV1 SAVING "FLOW LOWER FACE " ON UNIT  53 AT TIME STEP  3, STRESS PERIOD   2
1
              HEAD IN LAYER   1 AT END OF TIME STEP   3 IN STRESS PERIOD    2
  ---------------------------------------------------------------------------

            1           2           3           4           5           6           7           8           9          10
 ........................................................................................................................
   1    10.00       9.957       9.887       9.752       9.482       8.955       7.975       6.270       3.590      1.1936E-02
   2    10.00       9.957       9.887       9.752       9.482       8.955       7.975       6.270       3.590      1.1936E-02
   3    10.00       9.957       9.887       9.752       9.482       8.955       7.975       6.270       3.590      1.1936E-02
   4    10.00       9.957       9.887       9.752       9.482       8.955       7.975       6.270       3.590      1.1936E-02
   5    10.00       9.957       9.887       9.752       9.482       8.955       7.975       6.270       3.590      1.1936E-02
   6    10.00       9.957       9.887       9.752       9.482       8.955       7.975       6.270       3.590      1.1936E-02
   7    10.00       9.957       9.887       9.752       9.482       8.955       7.975       6.270       3.590      1.1936E-02
   8    10.00       9.957       9.887       9.752       9.482       8.955       7.975       6.270       3.590      1.1936E-02
   9    10.00       9.957       9.887       9.752       9.482       8.955       7.975       6.270       3.590      1.1936E-02
  10    10.00       9.957       9.887       9.752       9.482       8.955       7.975       6.270       3.590      1.1936E-02
1
              HEAD IN LAYER   2 AT END OF TIME STEP   3 IN STRESS PERIOD    2
  ---------------------------------------------------------------------------

            1           2           3           4           5           6           7           8           9          10
 ........................................................................................................................
   1    10.00       9.957       9.887       9.752       9.482       8.955       7.975       6.270       3.590      1.1936E-02
   2    10.00       9.957       9.887       9.752       9.482       8.955       7.975       6.270       3.590      1.1936E-02
   3    10.00       9.957       9.887       9.752       9.482       8.955       7.975       6.270       3.590      1.1936E-02
   4    10.00       9.957       9.887       9.752       9.482       8.955       7.975       6.270       3.590      1.1936E-02
   5    10.00       9.957       9.887       9.752       9.482       8.955       7.975       6.270       3.590      1.1936E-02
   6    10.00       9.957       9.887       9.752       9.482       8.955       7.975       6.270       3.590      1.1936E-02
   7    10.00       9.957       9.887       9.752       9.482       8.955       7.975       6.270       3.590      1.1936E-02
   8    10.00       9.957       9.887       9.752       9.482       8.955       7.975       6.270       3.590      1.1936E-02
   9    10.00       9.957       9.887       9.752       9.482       8.955       7.975       6.270       3.590      1.1936E-02
  10    10.00       9.957       9.887       9.752       9.482       8.955       7.975       6.270       3.590      1.1936E-02
1
              HEAD IN LAYER   3 AT END OF TIME STEP   3 IN STRESS PERIOD    2
  ---------------------------------------------------------------------------

            1           2           3           4           5           6           7           8           9          10
 ........................................................................................................................
   1    10.00       9.957       9.887       9.752       9.482       8.955       7.975       6.270       3.590      1.1936E-02
   2    10.00       9.957       9.887       9.752       9.482       8.955       7.975       6.270       3.590      1.1936E-02
   3    10.00       9.957       9.887       9.752       9.482       8.955       7.975       6.270       3.590      1.1936E-02
   4    10.00       9.957       9.887       9.752       9.482       8.955       7.975       6.270       3.590      1.1936E-02
   5    10.00       9.957       9.887       9.752       9.482       8.955       7.975       6.270       3.590      1.1936E-02
   6    10.00       9.957       9.887       9.752       9.482       8.955       7.975       6.270       3.590      1.1936E-02
   7    10.00       9.957       9.887       9.752       9.482       8.955       7.975       6.270       3.590      1.1936E-02
   8    10.00       9.957       9.887       9.752       9.482       8.955       7.975       6.270       3.590      1.1936E-02
   9    10.00       9.957       9.887       9.752       9.482       8.955       7.975       6.270       3.590      1.1936E-02
  10    10.00       9.957       9.887       9.752       9.482       8.955       7.975       6.270       3.590      1.1936E-02

 HEAD WILL BE SAVED ON UNIT   51 AT END OF TIME STEP    3, STRESS PERIOD    2

 DRAWDOWN WILL BE SAVED ON UNIT   52 AT END OF TIME STEP    3, STRESS PERIOD    2
1
  VOLUMETRIC BUDGET FOR ENTIRE MODEL AT END OF TIME STEP    3, STRESS PERIOD   2
  ------------------------------------------------------------------------------

     CUMULATIVE VOLUMES      L**3       RATES FOR THIS TIME STEP      L**3/T
     ------------------                 ------------------------

           IN:                                      IN:
           ---                                      ---
             STORAGE =       12060.4912               STORAGE =        1768.8195
       CONSTANT HEAD =           0.0000         CONSTANT HEAD =           0.0000
               WELLS =           0.0000                 WELLS =           0.0000
       RIVER LEAKAGE =          31.8255         RIVER LEAKAGE =          21.5980

            TOTAL IN =       12092.3164              TOTAL IN =        1790.4175

          OUT:                                     OUT:
          ----                                     ----
             STORAGE =           0.0000               STORAGE =           0.0000
       CONSTANT HEAD =           0.0000         CONSTANT HEAD =           0.0000
               WELLS =           0.0000                 WELLS =           0.0000
       RIVER LEAKAGE =       12092.4932         RIVER LEAKAGE =        1790.4114

           TOTAL OUT =       12092.4932             TOTAL OUT =        1790.4114

            IN - OUT =          -0.1768              IN - OUT =       6.1035E-03

 PERCENT DISCREPANCY =          -0.00     PERCENT DISCREPANCY =           0.00






         TIME SUMMARY AT END OF TIME STEP    3 IN STRESS PERIOD    2
                    SECONDS     MINUTES      HOURS       DAYS        YEARS
                    -----------------------------------------------------------
   TIME STEP LENGTH  86400.      1440.0      24.000      1.0000     2.73785E-03
 STRESS PERIOD TIME 2.59200E+05  4320.0      72.000      3.0000     8.21355E-03
         TOTAL TIME 3.45600E+05  5760.0      96.000      4.0000     1.09514E-02
1

 SOLVING FOR HEAD 

 OUTPUT CONTROL FOR STRESS PERIOD    2   TIME STEP    4
    SAVE HEAD FOR ALL LAYERS
    SAVE DRAWDOWN FOR ALL LAYERS
    SAVE BUDGET
    PRINT HEAD FOR ALL LAYERS
    PRINT BUDGET
 UBDSV1 SAVING "         STORAGE" ON UNIT  53 AT TIME STEP  4, STRESS PERIOD   2
 UBDSV2 SAVING "   CONSTANT HEAD" ON UNIT  53 AT TIME STEP  4, STRESS PERIOD   2
 UBDSV1 SAVING "FLOW RIGHT FACE " ON UNIT  53 AT TIME STEP  4, STRESS PERIOD   2
 UBDSV1 SAVING "FLOW FRONT FACE " ON UNIT  53 AT TIME STEP  4, STRESS PERIOD   2
 UBDSV1 SAVING "FLOW LOWER FACE " ON UNIT  53 AT TIME STEP  4, STRESS PERIOD   2
1
              HEAD IN LAYER   1 AT END OF TIME STEP   4 IN STRESS PERIOD    2
  ---------------------------------------------------------------------------

            1           2           3           4           5           6           7           8           9          10
 ........................................................................................................................
   1    10.00       9.917       9.793       9.576       9.184       8.493       7.341       5.554       3.051      1.0143E-02
   2    10.00       9.917       9.793       9.576       9.184       8.493       7.341       5.554       3.051      1.0143E-02
   3    10.00       9.917       9.793       9.576       9.184       8.493       7.341       5.554       3.051      1.0143E-02
   4    10.00       9.917       9.793       9.576       9.184       8.493       7.341       5.554       3.051      1.0143E-02
   5    10.00       9.917       9.793       9.576       9.184       8.493       7.341       5.554       3.051      1.0143E-02
   6    10.00       9.917       9.793       9.576       9.184       8.493       7.341       5.554       3.051      1.0143E-02
   7    10.00       9.917       9.793       9.576       9.184       8.493       7.341       5.554       3.051      1.0143E-02
   8    10.00       9.917       9.793       9.576       9.184       8.493       7.341       5.554       3.051      1.0143E-02
   9    10.00       9.917       9.793       9.576       9.184       8.493       7.341       5.554       3.051      1.0143E-02
  10    10.00       9.917       9.793       9.576       9.184       8.493       7.341       5.554       3.051      1.0143E-02
1
              HEAD IN LAYER   2 AT END OF TIME STEP   4 IN STRESS PERIOD    2
  ---------------------------------------------------------------------------

            1           2           3           4           5           6           7           8           9          10
 ........................................................................................................................
   1    10.00       9.917       9.793       9.576       9.184       8.493       7.341       5.554       3.051      1.0143E-02
   2    10.00       9.917       9.793       9.576       9.184       8.493       7.341       5.554       3.051      1.0143E-02
   3    10.00       9.917       9.793       9.576       9.184       8.493       7.341       5.554       3.051      1.0143E-02
   4    10.00       9.917       9.793       9.576       9.184       8.493       7.341       5.554       3.051      1.0143E-02
   5    10.00       9.917       9.793       9.576       9.184       8.493       7.341       5.554       3.051      1.0143E-02
   6    10.00       9.917       9.793       9.576       9.184       8.493       7.341       5.554       3.051      1.0143E-02
   7    10.00       9.917       9.793       9.576       9.184       8.493       7.341       5.554       3.051      1.0143E-02
   8    10.00       9.917       9.793       9.576       9.184       8.493       7.341       5.554       3.051      1.0143E-02
   9    10.00       9.917       9.793       9.576       9.184       8.493       7.341       5.554       3.051      1.0143E-02
  10    10.00       9.917       9.793       9.576       9.184       8.493       7.341       5.554       3.051      1.0143E-02
1
              HEAD IN LAYER   3 AT END OF TIME STEP   4 IN STRESS PERIOD    2
  ---------------------------------------------------------------------------

            1           2           3           4           5           6           7           8           9          10
 ........................................................................................................................
   1    10.00       9.917       9.793       9.576       9.184       8.493       7.341       5.554       3.051      1.0143E-02
   2    10.00       9.917       9.793       9.576       9.184       8.493       7.341       5.554       3.051      1.0143E-02
   3    10.00       9.917       9.793       9.576       9.184       8.493       7.341       5.554       3.051      1.0143E-02
   4    10.00       9.917       9.793       9.576       9.184       8.493       7.341       5.554       3.051      1.0143E-02
   5    10.00       9.917       9.793       9.576       9.184       8.493       7.341       5.554       3.051      1.0143E-02
   6    10.00       9.917       9.793       9.576       9.184       8.493       7.341       5.554       3.051      1.0143E-02
   7    10.00       9.917       9.793       9.576       9.184       8.493       7.341       5.554       3.051      1.0143E-02
   8    10.00       9.917       9.793       9.576       9.184       8.493       7.341       5.554       3.051      1.0143E-02
   9    10.00       9.917       9.793       9.576       9.184       8.493       7.341       5.554       3.051      1.0143E-02
  10    10.00       9.917       9.793       9.576       9.184       8.493       7.341       5.554       3.051      1.0143E-02

 HEAD WILL BE SAVED ON UNIT   51 AT END OF TIME STEP    4, STRESS PERIOD    2

 DRAWDOWN WILL BE SAVED ON UNIT   52 AT END OF TIME STEP    4, STRESS PERIOD    2
1
  VOLUMETRIC BUDGET FOR ENTIRE MODEL AT END OF TIME STEP    4, STRESS PERIOD   2
  ------------------------------------------------------------------------------

     CUMULATIVE VOLUMES      L**3       RATES FOR THIS TIME STEP      L**3/T
     ------------------                 ------------------------

           IN:                                      IN:
           ---                                      ---
             STORAGE =       13540.4062               STORAGE =        1479.9150
       CONSTANT HEAD =           0.0000         CONSTANT HEAD =           0.0000
               WELLS =           0.0000                 WELLS =           0.0000
       RIVER LEAKAGE =          73.3407         RIVER LEAKAGE =          41.5152

            TOTAL IN =       13613.7471              TOTAL IN =        1521.4302

          OUT:                                     OUT:
          ----                                     ----
             STORAGE =           0.0000               STORAGE =           0.0000
       CONSTANT HEAD =           0.0000         CONSTANT HEAD =           0.0000
               WELLS =           0.0000                 WELLS =           0.0000
       RIVER LEAKAGE =       13613.9541         RIVER LEAKAGE =        1521.4611

           TOTAL OUT =       13613.9541             TOTAL OUT =        1521.4611

            IN - OUT =          -0.2070              IN - OUT =      -3.0884E-02

 PERCENT DISCREPANCY =          -0.00     PERCENT DISCREPANCY =          -0.00






         TIME SUMMARY AT END OF TIME STEP    4 IN STRESS PERIOD    2
                    SECONDS     MINUTES      HOURS       DAYS        YEARS
                    -----------------------------------------------------------
   TIME STEP LENGTH  86400.      1440.0      24.000      1.0000     2.73785E-03
 STRESS PERIOD TIME 3.45600E+05  5760.0      96.000      4.0000     1.09514E-02
         TOTAL TIME 4.32000E+05  7200.0      120.00      5.0000     1.36893E-02
1

 SOLVING FOR HEAD 

 OUTPUT CONTROL FOR STRESS PERIOD    2   TIME STEP    5
    SAVE HEAD FOR ALL LAYERS
    SAVE DRAWDOWN FOR ALL LAYERS
    SAVE BUDGET
    PRINT HEAD FOR ALL LAYERS
    PRINT BUDGET
 UBDSV1 SAVING "         STORAGE" ON UNIT  53 AT TIME STEP  5, STRESS PERIOD   2
 UBDSV2 SAVING "   CONSTANT HEAD" ON UNIT  53 AT TIME STEP  5, STRESS PERIOD   2
 UBDSV1 SAVING "FLOW RIGHT FACE " ON UNIT  53 AT TIME STEP  5, STRESS PERIOD   2
 UBDSV1 SAVING "FLOW FRONT FACE " ON UNIT  53 AT TIME STEP  5, STRESS PERIOD   2
 UBDSV1 SAVING "FLOW LOWER FACE " ON UNIT  53 AT TIME STEP  5, STRESS PERIOD   2
1
              HEAD IN LAYER   1 AT END OF TIME STEP   5 IN STRESS PERIOD    2
  ---------------------------------------------------------------------------

            1           2           3           4           5           6           7           8           9          10
 ........................................................................................................................
   1    10.00       9.865       9.678       9.375       8.872       8.057       6.805       5.017       2.692      8.9490E-03
   2    10.00       9.865       9.678       9.375       8.872       8.057       6.805       5.017       2.692      8.9490E-03
   3    10.00       9.865       9.678       9.375       8.872       8.057       6.805       5.017       2.692      8.9490E-03
   4    10.00       9.865       9.678       9.375       8.872       8.057       6.805       5.017       2.692      8.9490E-03
   5    10.00       9.865       9.678       9.375       8.872       8.057       6.805       5.017       2.692      8.9490E-03
   6    10.00       9.865       9.678       9.375       8.872       8.057       6.805       5.017       2.692      8.9490E-03
   7    10.00       9.865       9.678       9.375       8.872       8.057       6.805       5.017       2.692      8.9490E-03
   8    10.00       9.865       9.678       9.375       8.872       8.057       6.805       5.017       2.692      8.9490E-03
   9    10.00       9.865       9.678       9.375       8.872       8.057       6.805       5.017       2.692      8.9490E-03
  10    10.00       9.865       9.678       9.375       8.872       8.057       6.805       5.017       2.692      8.9490E-03
1
              HEAD IN LAYER   2 AT END OF TIME STEP   5 IN STRESS PERIOD    2
  ---------------------------------------------------------------------------

            1           2           3           4           5           6           7           8           9          10
 ........................................................................................................................
   1    10.00       9.865       9.678       9.375       8.872       8.057       6.805       5.017       2.692      8.9490E-03
   2    10.00       9.865       9.678       9.375       8.872       8.057       6.805       5.017       2.692      8.9490E-03
   3    10.00       9.865       9.678       9.375       8.872       8.057       6.805       5.017       2.692      8.9490E-03
   4    10.00       9.865       9.678       9.375       8.872       8.057       6.805       5.017       2.692      8.9490E-03
   5    10.00       9.865       9.678       9.375       8.872       8.057       6.805       5.017       2.692      8.9490E-03
   6    10.00       9.865       9.678       9.375       8.872       8.057       6.805       5.017       2.692      8.9490E-03
   7    10.00       9.865       9.678       9.375       8.872       8.057       6.805       5.017       2.692      8.9490E-03
   8    10.00       9.865       9.678       9.375       8.872       8.057       6.805       5.017       2.692      8.9490E-03
   9    10.00       9.865       9.678       9.375       8.872       8.057       6.805       5.017       2.692      8.9490E-03
  10    10.00       9.865       9.678       9.375       8.872       8.057       6.805       5.017       2.692      8.9490E-03
1
              HEAD IN LAYER   3 AT END OF TIME STEP   5 IN STRESS PERIOD    2
  ---------------------------------------------------------------------------

            1           2           3           4           5           6           7           8           9          10
 ........................................................................................................................
   1    10.00       9.865       9.678       9.375       8.872       8.057       6.805       5.017       2.692      8.9489E-03
   2    10.00       9.865       9.678       9.375       8.872       8.057       6.805       5.017       2.692      8.9489E-03
   3    10.00       9.865       9.678       9.375       8.872       8.057       6.805       5.017       2.692      8.9489E-03
   4    10.00       9.865       9.678       9.375       8.872       8.057       6.805       5.017       2.692      8.9489E-03
   5    10.00       9.865       9.678       9.375       8.872       8.057       6.805       5.017       2.692      8.9489E-03
   6    10.00       9.865       9.678       9.375       8.872       8.057       6.805       5.017       2.692      8.9489E-03
   7    10.00       9.865       9.678       9.375       8.872       8.057       6.805       5.017       2.692      8.9489E-03
   8    10.00       9.865       9.678       9.375       8.872       8.057       6.805       5.017       2.692      8.9489E-03
   9    10.00       9.865       9.678       9.375       8.872       8.057       6.805       5.017       2.692      8.9489E-03
  10    10.00       9.865       9.678       9.375       8.872       8.057       6.805       5.017       2.692      8.9489E-03

 HEAD WILL BE SAVED ON UNIT   51 AT END OF TIME STEP    5, STRESS PERIOD    2

 DRAWDOWN WILL BE SAVED ON UNIT   52 AT END OF TIME STEP    5, STRESS PERIOD    2
1
  VOLUMETRIC BUDGET FOR ENTIRE MODEL AT END OF TIME STEP    5, STRESS PERIOD   2
  ------------------------------------------------------------------------------

     CUMULATIVE VOLUMES      L**3       RATES FOR THIS TIME STEP      L**3/T
     ------------------                 ------------------------

           IN:                                      IN:
           ---                                      ---
             STORAGE =       14815.3340               STORAGE =        1274.9281
       CONSTANT HEAD =           0.0000         CONSTANT HEAD =           0.0000
               WELLS =           0.0000                 WELLS =           0.0000
       RIVER LEAKAGE =         140.6696         RIVER LEAKAGE =          67.3289

            TOTAL IN =       14956.0039              TOTAL IN =        1342.2570

          OUT:                                     OUT:
          ----                                     ----
             STORAGE =           0.0000               STORAGE =           0.0000
       CONSTANT HEAD =           0.0000         CONSTANT HEAD =           0.0000
               WELLS =           0.0000                 WELLS =           0.0000
       RIVER LEAKAGE =       14956.2969         RIVER LEAKAGE =        1342.3428

           TOTAL OUT =       14956.2969             TOTAL OUT =        1342.3428

            IN - OUT =          -0.2930              IN - OUT =      -8.5815E-02

 PERCENT DISCREPANCY =          -0.00     PERCENT DISCREPANCY =          -0.01






         TIME SUMMARY AT END OF TIME STEP    5 IN STRESS PERIOD    2
                    SECONDS     MINUTES      HOURS       DAYS        YEARS
                    -----------------------------------------------------------
   TIME STEP LENGTH  86400.      1440.0      24.000      1.0000     2.73785E-03
 STRESS PERIOD TIME 4.32000E+05  7200.0      120.00      5.0000     1.36893E-02
         TOTAL TIME 5.18400E+05  8640.0      144.00      6.0000     1.64271E-02
1

 SOLVING FOR HEAD 

 OUTPUT CONTROL FOR STRESS PERIOD    2   TIME STEP    6
    SAVE HEAD FOR ALL LAYERS
    SAVE DRAWDOWN FOR ALL LAYERS
    SAVE BUDGET
    PRINT HEAD FOR ALL LAYERS
    PRINT BUDGET
 UBDSV1 SAVING "         STORAGE" ON UNIT  53 AT TIME STEP  6, STRESS PERIOD   2
 UBDSV2 SAVING "   CONSTANT HEAD" ON UNIT  53 AT TIME STEP  6, STRESS PERIOD   2
 UBDSV1 SAVING "FLOW RIGHT FACE " ON UNIT  53 AT TIME STEP  6, STRESS PERIOD   2
 UBDSV1 SAVING "FLOW FRONT FACE " ON UNIT  53 AT TIME STEP  6, STRESS PERIOD   2
 UBDSV1 SAVING "FLOW LOWER FACE " ON UNIT  53 AT TIME STEP  6, STRESS PERIOD   2
1
              HEAD IN LAYER   1 AT END OF TIME STEP   6 IN STRESS PERIOD    2
  ---------------------------------------------------------------------------

            1           2           3           4           5           6           7           8           9          10
 ........................................................................................................................
   1    9.999       9.804       9.548       9.163       8.564       7.659       6.355       4.602       2.434      8.0901E-03
   2    9.999       9.804       9.548       9.163       8.564       7.659       6.355       4.602       2.434      8.0901E-03
   3    9.999       9.804       9.548       9.163       8.564       7.659       6.355       4.602       2.434      8.0901E-03
   4    9.999       9.804       9.548       9.163       8.564       7.659       6.355       4.602       2.434      8.0901E-03
   5    9.999       9.804       9.548       9.163       8.564       7.659       6.355       4.602       2.434      8.0901E-03
   6    9.999       9.804       9.548       9.163       8.564       7.659       6.355       4.602       2.434      8.0901E-03
   7    9.999       9.804       9.548       9.163       8.564       7.659       6.355       4.602       2.434      8.0901E-03
   8    9.999       9.804       9.548       9.163       8.564       7.659       6.355       4.602       2.434      8.0901E-03
   9    9.999       9.804       9.548       9.163       8.564       7.659       6.355       4.602       2.434      8.0901E-03
  10    9.999       9.804       9.548       9.163       8.564       7.659       6.355       4.602       2.434      8.0901E-03
1
              HEAD IN LAYER   2 AT END OF TIME STEP   6 IN STRESS PERIOD    2
  ---------------------------------------------------------------------------

            1           2           3           4           5           6           7           8           9          10
 ........................................................................................................................
   1    9.999       9.804       9.548       9.163       8.564       7.659       6.355       4.602       2.434      8.0901E-03
   2    9.999       9.804       9.548       9.163       8.564       7.659       6.355       4.602       2.434      8.0901E-03
   3    9.999       9.804       9.548       9.163       8.564       7.659       6.355       4.602       2.434      8.0901E-03
   4    9.999       9.804       9.548       9.163       8.564       7.659       6.355       4.602       2.434      8.0901E-03
   5    9.999       9.804       9.548       9.163       8.564       7.659       6.355       4.602       2.434      8.0901E-03
   6    9.999       9.804       9.548       9.163       8.564       7.659       6.355       4.602       2.434      8.0901E-03
   7    9.999       9.804       9.548       9.163       8.564       7.659       6.355       4.602       2.434      8.0901E-03
   8    9.999       9.804       9.548       9.163       8.564       7.659       6.355       4.602       2.434      8.0901E-03
   9    9.999       9.804       9.548       9.163       8.564       7.659       6.355       4.602       2.434      8.0901E-03
  10    9.999       9.804       9.548       9.163       8.564       7.659       6.355       4.602       2.434      8.0901E-03
1
              HEAD IN LAYER   3 AT END OF TIME STEP   6 IN STRESS PERIOD    2
  ---------------------------------------------------------------------------

            1           2           3           4           5           6           7           8           9          10
 ........................................................................................................................
   1    9.999       9.804       9.548       9.163       8.564       7.659       6.355       4.602       2.434      8.0900E-03
   2    9.999       9.804       9.548       9.163       8.564       7.659       6.355       4.602       2.434      8.0900E-03
   3    9.999       9.804       9.548       9.163       8.564       7.659       6.355       4.602       2.434      8.0900E-03
   4    9.999       9.804       9.548       9.163       8.564       7.659       6.355       4.602       2.434      8.0900E-03
   5    9.999       9.804       9.548       9.163       8.564       7.659       6.355       4.602       2.434      8.0900E-03
   6    9.999       9.804       9.548       9.163       8.564       7.659       6.355       4.602       2.434      8.0900E-03
   7    9.999       9.804       9.548       9.163       8.564       7.659       6.355       4.602       2.434      8.0900E-03
   8    9.999       9.804       9.548       9.163       8.564       7.659       6.355       4.602       2.434      8.0900E-03
   9    9.999       9.804       9.548       9.163       8.564       7.659       6.355       4.602       2.434      8.0900E-03
  10    9.999       9.804       9.548       9.163       8.564       7.659       6.355       4.602       2.434      8.0900E-03

 HEAD WILL BE SAVED ON UNIT   51 AT END OF TIME STEP    6, STRESS PERIOD    2

 DRAWDOWN WILL BE SAVED ON UNIT   52 AT END OF TIME STEP    6, STRESS PERIOD    2
1
  VOLUMETRIC BUDGET FOR ENTIRE MODEL AT END OF TIME STEP    6, STRESS PERIOD   2
  ------------------------------------------------------------------------------

     CUMULATIVE VOLUMES      L**3       RATES FOR THIS TIME STEP      L**3/T
     ------------------                 ------------------------

           IN:                                      IN:
           ---                                      ---
             STORAGE =       15931.2441               STORAGE =        1115.9100
       CONSTANT HEAD =           0.0000         CONSTANT HEAD =           0.0000
               WELLS =           0.0000                 WELLS =           0.0000
       RIVER LEAKAGE =         238.2268         RIVER LEAKAGE =          97.5573

            TOTAL IN =       16169.4707              TOTAL IN =        1213.4673

          OUT:                                     OUT:
          ----                                     ----
             STORAGE =           0.0000               STORAGE =           0.0000
       CONSTANT HEAD =           0.0000         CONSTANT HEAD =           0.0000
               WELLS =           0.0000                 WELLS =           0.0000
       RIVER LEAKAGE =       16169.8047         RIVER LEAKAGE =        1213.5081

           TOTAL OUT =       16169.8047             TOTAL OUT =        1213.5081

            IN - OUT =          -0.3340              IN - OUT =      -4.0771E-02

 PERCENT DISCREPANCY =          -0.00     PERCENT DISCREPANCY =          -0.00






         TIME SUMMARY AT END OF TIME STEP    6 IN STRESS PERIOD    2
                    SECONDS     MINUTES      HOURS       DAYS        YEARS
                    -----------------------------------------------------------
   TIME STEP LENGTH  86400.      1440.0      24.000      1.0000     2.73785E-03
 STRESS PERIOD TIME 5.18400E+05  8640.0      144.00      6.0000     1.64271E-02
         TOTAL TIME 6.04800E+05  10080.      168.00      7.0000     1.91650E-02
1

 SOLVING FOR HEAD 

 OUTPUT CONTROL FOR STRESS PERIOD    2   TIME STEP    7
    SAVE HEAD FOR ALL LAYERS
    SAVE DRAWDOWN FOR ALL LAYERS
    SAVE BUDGET
    PRINT HEAD FOR ALL LAYERS
    PRINT BUDGET
 UBDSV1 SAVING "         STORAGE" ON UNIT  53 AT TIME STEP  7, STRESS PERIOD   2
 UBDSV2 SAVING "   CONSTANT HEAD" ON UNIT  53 AT TIME STEP  7, STRESS PERIOD   2
 UBDSV1 SAVING "FLOW RIGHT FACE " ON UNIT  53 AT TIME STEP  7, STRESS PERIOD   2
 UBDSV1 SAVING "FLOW FRONT FACE " ON UNIT  53 AT TIME STEP  7, STRESS PERIOD   2
 UBDSV1 SAVING "FLOW LOWER FACE " ON UNIT  53 AT TIME STEP  7, STRESS PERIOD   2
1
              HEAD IN LAYER   1 AT END OF TIME STEP   7 IN STRESS PERIOD    2
  ---------------------------------------------------------------------------

            1           2           3           4           5           6           7           8           9          10
 ........................................................................................................................
   1    9.999       9.738       9.412       8.949       8.272       7.302       5.977       4.272       2.238      7.4374E-03
   2    9.999       9.738       9.412       8.949       8.272       7.302       5.977       4.272       2.238      7.4374E-03
   3    9.999       9.738       9.412       8.949       8.272       7.302       5.977       4.272       2.238      7.4374E-03
   4    9.999       9.738       9.412       8.949       8.272       7.302       5.977       4.272       2.238      7.4374E-03
   5    9.999       9.738       9.412       8.949       8.272       7.302       5.977       4.272       2.238      7.4374E-03
   6    9.999       9.738       9.412       8.949       8.272       7.302       5.977       4.272       2.238      7.4374E-03
   7    9.999       9.738       9.412       8.949       8.272       7.302       5.977       4.272       2.238      7.4374E-03
   8    9.999       9.738       9.412       8.949       8.272       7.302       5.977       4.272       2.238      7.4374E-03
   9    9.999       9.738       9.412       8.949       8.272       7.302       5.977       4.272       2.238      7.4374E-03
  10    9.999       9.738       9.412       8.949       8.272       7.302       5.977       4.272       2.238      7.4374E-03
1
              HEAD IN LAYER   2 AT END OF TIME STEP   7 IN STRESS PERIOD    2
  ---------------------------------------------------------------------------

            1           2           3           4           5           6           7           8           9          10
 ........................................................................................................................
   1    9.999       9.738       9.412       8.949       8.272       7.302       5.977       4.272       2.238      7.4374E-03
   2    9.999       9.738       9.412       8.949       8.272       7.302       5.977       4.272       2.238      7.4374E-03
   3    9.999       9.738       9.412       8.949       8.272       7.302       5.977       4.272       2.238      7.4374E-03
   4    9.999       9.738       9.412       8.949       8.272       7.302       5.977       4.272       2.238      7.4374E-03
   5    9.999       9.738       9.412       8.949       8.272       7.302       5.977       4.272       2.238      7.4374E-03
   6    9.999       9.738       9.412       8.949       8.272       7.302       5.977       4.272       2.238      7.4374E-03
   7    9.999       9.738       9.412       8.949       8.272       7.302       5.977       4.272       2.238      7.4374E-03
   8    9.999       9.738       9.412       8.949       8.272       7.302       5.977       4.272       2.238      7.4374E-03
   9    9.999       9.738       9.412       8.949       8.272       7.302       5.977       4.272       2.238      7.4374E-03
  10    9.999       9.738       9.412       8.949       8.272       7.302       5.977       4.272       2.238      7.4374E-03
1
              HEAD IN LAYER   3 AT END OF TIME STEP   7 IN STRESS PERIOD    2
  ---------------------------------------------------------------------------

            1           2           3           4           5           6           7           8           9          10
 ........................................................................................................................
   1    9.999       9.738       9.412       8.949       8.272       7.302       5.977       4.272       2.238      7.4374E-03
   2    9.999       9.738       9.412       8.949       8.272       7.302       5.977       4.272       2.238      7.4374E-03
   3    9.999       9.738       9.412       8.949       8.272       7.302       5.977       4.272       2.238      7.4374E-03
   4    9.999       9.738       9.412       8.949       8.272       7.302       5.977       4.272       2.238      7.4374E-03
   5    9.999       9.738       9.412       8.949       8.272       7.302       5.977       4.272       2.238      7.4374E-03
   6    9.999       9.738       9.412       8.949       8.272       7.302       5.977       4.272       2.238      7.4374E-03
   7    9.999       9.738       9.412       8.949       8.272       7.302       5.977       4.272       2.238      7.4374E-03
   8    9.999       9.738       9.412       8.949       8.272       7.302       5.977       4.272       2.238      7.4374E-03
   9    9.999       9.738       9.412       8.949       8.272       7.302       5.977       4.272       2.238      7.4374E-03
  10    9.999       9.738       9.412       8.949       8.272       7.302       5.977       4.272       2.238      7.4374E-03

 HEAD WILL BE SAVED ON UNIT   51 AT END OF TIME STEP    7, STRESS PERIOD    2

 DRAWDOWN WILL BE SAVED ON UNIT   52 AT END OF TIME STEP    7, STRESS PERIOD    2
1
  VOLUMETRIC BUDGET FOR ENTIRE MODEL AT END OF TIME STEP    7, STRESS PERIOD   2
  ------------------------------------------------------------------------------

     CUMULATIVE VOLUMES      L**3       RATES FOR THIS TIME STEP      L**3/T
     ------------------                 ------------------------

           IN:                                      IN:
           ---                                      ---
             STORAGE =       16916.4922               STORAGE =         985.2480
       CONSTANT HEAD =           0.0000         CONSTANT HEAD =           0.0000
               WELLS =           0.0000                 WELLS =           0.0000
       RIVER LEAKAGE =         368.5752         RIVER LEAKAGE =         130.3484

            TOTAL IN =       17285.0684              TOTAL IN =        1115.5964

          OUT:                                     OUT:
          ----                                     ----
             STORAGE =           0.0000               STORAGE =           0.0000
       CONSTANT HEAD =           0.0000         CONSTANT HEAD =           0.0000
               WELLS =           0.0000                 WELLS =           0.0000
       RIVER LEAKAGE =       17285.4102         RIVER LEAKAGE =        1115.6046

           TOTAL OUT =       17285.4102             TOTAL OUT =        1115.6046

            IN - OUT =          -0.3418              IN - OUT =      -8.1787E-03

 PERCENT DISCREPANCY =          -0.00     PERCENT DISCREPANCY =          -0.00






         TIME SUMMARY AT END OF TIME STEP    7 IN STRESS PERIOD    2
                    SECONDS     MINUTES      HOURS       DAYS        YEARS
                    -----------------------------------------------------------
   TIME STEP LENGTH  86400.      1440.0      24.000      1.0000     2.73785E-03
 STRESS PERIOD TIME 6.04800E+05  10080.      168.00      7.0000     1.91650E-02
         TOTAL TIME 6.91200E+05  11520.      192.00      8.0000     2.19028E-02
1

 SOLVING FOR HEAD 

 OUTPUT CONTROL FOR STRESS PERIOD    2   TIME STEP    8
    SAVE HEAD FOR ALL LAYERS
    SAVE DRAWDOWN FOR ALL LAYERS
    SAVE BUDGET
    PRINT HEAD FOR ALL LAYERS
    PRINT BUDGET
 UBDSV1 SAVING "         STORAGE" ON UNIT  53 AT TIME STEP  8, STRESS PERIOD   2
 UBDSV2 SAVING "   CONSTANT HEAD" ON UNIT  53 AT TIME STEP  8, STRESS PERIOD   2
 UBDSV1 SAVING "FLOW RIGHT FACE " ON UNIT  53 AT TIME STEP  8, STRESS PERIOD   2
 UBDSV1 SAVING "FLOW FRONT FACE " ON UNIT  53 AT TIME STEP  8, STRESS PERIOD   2
 UBDSV1 SAVING "FLOW LOWER FACE " ON UNIT  53 AT TIME STEP  8, STRESS PERIOD   2
1
              HEAD IN LAYER   1 AT END OF TIME STEP   8 IN STRESS PERIOD    2
  ---------------------------------------------------------------------------

            1           2           3           4           5           6           7           8           9          10
 ........................................................................................................................
   1    9.999       9.671       9.274       8.741       8.000       6.986       5.655       4.003       2.083      6.9213E-03
   2    9.999       9.671       9.274       8.741       8.000       6.986       5.655       4.003       2.083      6.9213E-03
   3    9.999       9.671       9.274       8.741       8.000       6.986       5.655       4.003       2.083      6.9213E-03
   4    9.999       9.671       9.274       8.741       8.000       6.986       5.655       4.003       2.083      6.9213E-03
   5    9.999       9.671       9.274       8.741       8.000       6.986       5.655       4.003       2.083      6.9213E-03
   6    9.999       9.671       9.274       8.741       8.000       6.986       5.655       4.003       2.083      6.9213E-03
   7    9.999       9.671       9.274       8.741       8.000       6.986       5.655       4.003       2.083      6.9213E-03
   8    9.999       9.671       9.274       8.741       8.000       6.986       5.655       4.003       2.083      6.9213E-03
   9    9.999       9.671       9.274       8.741       8.000       6.986       5.655       4.003       2.083      6.9213E-03
  10    9.999       9.671       9.274       8.741       8.000       6.986       5.655       4.003       2.083      6.9213E-03
1
              HEAD IN LAYER   2 AT END OF TIME STEP   8 IN STRESS PERIOD    2
  ---------------------------------------------------------------------------

            1           2           3           4           5           6           7           8           9          10
 ........................................................................................................................
   1    9.999       9.671       9.274       8.741       8.000       6.986       5.655       4.003       2.083      6.9213E-03
   2    9.999       9.671       9.274       8.741       8.000       6.986       5.655       4.003       2.083      6.9213E-03
   3    9.999       9.671       9.274       8.741       8.000       6.986       5.655       4.003       2.083      6.9213E-03
   4    9.999       9.671       9.274       8.741       8.000       6.986       5.655       4.003       2.083      6.9213E-03
   5    9.999       9.671       9.274       8.741       8.000       6.986       5.655       4.003       2.083      6.9213E-03
   6    9.999       9.671       9.274       8.741       8.000       6.986       5.655       4.003       2.083      6.9213E-03
   7    9.999       9.671       9.274       8.741       8.000       6.986       5.655       4.003       2.083      6.9213E-03
   8    9.999       9.671       9.274       8.741       8.000       6.986       5.655       4.003       2.083      6.9213E-03
   9    9.999       9.671       9.274       8.741       8.000       6.986       5.655       4.003       2.083      6.9213E-03
  10    9.999       9.671       9.274       8.741       8.000       6.986       5.655       4.003       2.083      6.9213E-03
1
              HEAD IN LAYER   3 AT END OF TIME STEP   8 IN STRESS PERIOD    2
  ---------------------------------------------------------------------------

            1           2           3           4           5           6           7           8           9          10
 ........................................................................................................................
   1    9.999       9.671       9.274       8.741       8.000       6.986       5.655       4.003       2.083      6.9213E-03
   2    9.999       9.671       9.274       8.741       8.000       6.986       5.655       4.003       2.083      6.9213E-03
   3    9.999       9.671       9.274       8.741       8.000       6.986       5.655       4.003       2.083      6.9213E-03
   4    9.999       9.671       9.274       8.741       8.000       6.986       5.655       4.003       2.083      6.9213E-03
   5    9.999       9.671       9.274       8.741       8.000       6.986       5.655       4.003       2.083      6.9213E-03
   6    9.999       9.671       9.274       8.741       8.000       6.986       5.655       4.003       2.083      6.9213E-03
   7    9.999       9.671       9.274       8.741       8.000       6.986       5.655       4.003       2.083      6.9213E-03
   8    9.999       9.671       9.274       8.741       8.000       6.986       5.655       4.003       2.083      6.9213E-03
   9    9.999       9.671       9.274       8.741       8.000       6.986       5.655       4.003       2.083      6.9213E-03
  10    9.999       9.671       9.274       8.741       8.000       6.986       5.655       4.003       2.083      6.9213E-03

 HEAD WILL BE SAVED ON UNIT   51 AT END OF TIME STEP    8, STRESS PERIOD    2

 DRAWDOWN WILL BE SAVED ON UNIT   52 AT END OF TIME STEP    8, STRESS PERIOD    2
1
  VOLUMETRIC BUDGET FOR ENTIRE MODEL AT END OF TIME STEP    8, STRESS PERIOD   2
  ------------------------------------------------------------------------------

     CUMULATIVE VOLUMES      L**3       RATES FOR THIS TIME STEP      L**3/T
     ------------------                 ------------------------

           IN:                                      IN:
           ---                                      ---
             STORAGE =       17790.5547               STORAGE =         874.0634
       CONSTANT HEAD =           0.0000         CONSTANT HEAD =           0.0000
               WELLS =           0.0000                 WELLS =           0.0000
       RIVER LEAKAGE =         532.6083         RIVER LEAKAGE =         164.0331

            TOTAL IN =       18323.1621              TOTAL IN =        1038.0964

          OUT:                                     OUT:
          ----                                     ----
             STORAGE =           0.0000               STORAGE =           0.0000
       CONSTANT HEAD =           0.0000         CONSTANT HEAD =           0.0000
               WELLS =           0.0000                 WELLS =           0.0000
       RIVER LEAKAGE =       18323.6055         RIVER LEAKAGE =        1038.1945

           TOTAL OUT =       18323.6055             TOTAL OUT =        1038.1945

            IN - OUT =          -0.4434              IN - OUT =      -9.8022E-02

 PERCENT DISCREPANCY =          -0.00     PERCENT DISCREPANCY =          -0.01






         TIME SUMMARY AT END OF TIME STEP    8 IN STRESS PERIOD    2
                    SECONDS     MINUTES      HOURS       DAYS        YEARS
                    -----------------------------------------------------------
   TIME STEP LENGTH  86400.      1440.0      24.000      1.0000     2.73785E-03
 STRESS PERIOD TIME 6.91200E+05  11520.      192.00      8.0000     2.19028E-02
         TOTAL TIME 7.77600E+05  12960.      216.00      9.0000     2.46407E-02
1

 SOLVING FOR HEAD 

 OUTPUT CONTROL FOR STRESS PERIOD    2   TIME STEP    9
    SAVE HEAD FOR ALL LAYERS
    SAVE DRAWDOWN FOR ALL LAYERS
    SAVE BUDGET
    PRINT HEAD FOR ALL LAYERS
    PRINT BUDGET
 UBDSV1 SAVING "         STORAGE" ON UNIT  53 AT TIME STEP  9, STRESS PERIOD   2
 UBDSV2 SAVING "   CONSTANT HEAD" ON UNIT  53 AT TIME STEP  9, STRESS PERIOD   2
 UBDSV1 SAVING "FLOW RIGHT FACE " ON UNIT  53 AT TIME STEP  9, STRESS PERIOD   2
 UBDSV1 SAVING "FLOW FRONT FACE " ON UNIT  53 AT TIME STEP  9, STRESS PERIOD   2
 UBDSV1 SAVING "FLOW LOWER FACE " ON UNIT  53 AT TIME STEP  9, STRESS PERIOD   2
1
              HEAD IN LAYER   1 AT END OF TIME STEP   9 IN STRESS PERIOD    2
  ---------------------------------------------------------------------------

            1           2           3           4           5           6           7           8           9          10
 ........................................................................................................................
   1    9.999       9.603       9.140       8.544       7.749       6.705       5.380       3.780       1.956      6.5012E-03
   2    9.999       9.603       9.140       8.544       7.749       6.705       5.380       3.780       1.956      6.5012E-03
   3    9.999       9.603       9.140       8.544       7.749       6.705       5.380       3.780       1.956      6.5012E-03
   4    9.999       9.603       9.140       8.544       7.749       6.705       5.380       3.780       1.956      6.5012E-03
   5    9.999       9.603       9.140       8.544       7.749       6.705       5.380       3.780       1.956      6.5012E-03
   6    9.999       9.603       9.140       8.544       7.749       6.705       5.380       3.780       1.956      6.5012E-03
   7    9.999       9.603       9.140       8.544       7.749       6.705       5.380       3.780       1.956      6.5012E-03
   8    9.999       9.603       9.140       8.544       7.749       6.705       5.380       3.780       1.956      6.5012E-03
   9    9.999       9.603       9.140       8.544       7.749       6.705       5.380       3.780       1.956      6.5012E-03
  10    9.999       9.603       9.140       8.544       7.749       6.705       5.380       3.780       1.956      6.5012E-03
1
              HEAD IN LAYER   2 AT END OF TIME STEP   9 IN STRESS PERIOD    2
  ---------------------------------------------------------------------------

            1           2           3           4           5           6           7           8           9          10
 ........................................................................................................................
   1    9.999       9.603       9.140       8.544       7.749       6.705       5.380       3.780       1.956      6.5012E-03
   2    9.999       9.603       9.140       8.544       7.749       6.705       5.380       3.780       1.956      6.5012E-03
   3    9.999       9.603       9.140       8.544       7.749       6.705       5.380       3.780       1.956      6.5012E-03
   4    9.999       9.603       9.140       8.544       7.749       6.705       5.380       3.780       1.956      6.5012E-03
   5    9.999       9.603       9.140       8.544       7.749       6.705       5.380       3.780       1.956      6.5012E-03
   6    9.999       9.603       9.140       8.544       7.749       6.705       5.380       3.780       1.956      6.5012E-03
   7    9.999       9.603       9.140       8.544       7.749       6.705       5.380       3.780       1.956      6.5012E-03
   8    9.999       9.603       9.140       8.544       7.749       6.705       5.380       3.780       1.956      6.5012E-03
   9    9.999       9.603       9.140       8.544       7.749       6.705       5.380       3.780       1.956      6.5012E-03
  10    9.999       9.603       9.140       8.544       7.749       6.705       5.380       3.780       1.956      6.5012E-03
1
              HEAD IN LAYER   3 AT END OF TIME STEP   9 IN STRESS PERIOD    2
  ---------------------------------------------------------------------------

            1           2           3           4           5           6           7           8           9          10
 ........................................................................................................................
   1    9.999       9.603       9.140       8.544       7.749       6.705       5.380       3.780       1.956      6.5012E-03
   2    9.999       9.603       9.140       8.544       7.749       6.705       5.380       3.780       1.956      6.5012E-03
   3    9.999       9.603       9.140       8.544       7.749       6.705       5.380       3.780       1.956      6.5012E-03
   4    9.999       9.603       9.140       8.544       7.749       6.705       5.380       3.780       1.956      6.5012E-03
   5    9.999       9.603       9.140       8.544       7.749       6.705       5.380       3.780       1.956      6.5012E-03
   6    9.999       9.603       9.140       8.544       7.749       6.705       5.380       3.780       1.956      6.5012E-03
   7    9.999       9.603       9.140       8.544       7.749       6.705       5.380       3.780       1.956      6.5012E-03
   8    9.999       9.603       9.140       8.544       7.749       6.705       5.380       3.780       1.956      6.5012E-03
   9    9.999       9.603       9.140       8.544       7.749       6.705       5.380       3.780       1.956      6.5012E-03
  10    9.999       9.603       9.140       8.544       7.749       6.705       5.380       3.780       1.956      6.5012E-03

 HEAD WILL BE SAVED ON UNIT   51 AT END OF TIME STEP    9, STRESS PERIOD    2

 DRAWDOWN WILL BE SAVED ON UNIT   52 AT END OF TIME STEP    9, STRESS PERIOD    2
1
  VOLUMETRIC BUDGET FOR ENTIRE MODEL AT END OF TIME STEP    9, STRESS PERIOD   2
  ------------------------------------------------------------------------------

     CUMULATIVE VOLUMES      L**3       RATES FOR THIS TIME STEP      L**3/T
     ------------------                 ------------------------

           IN:                                      IN:
           ---                                      ---
             STORAGE =       18568.0391               STORAGE =         777.4851
       CONSTANT HEAD =           0.0000         CONSTANT HEAD =           0.0000
               WELLS =           0.0000                 WELLS =           0.0000
       RIVER LEAKAGE =         730.2249         RIVER LEAKAGE =         197.6166

            TOTAL IN =       19298.2637              TOTAL IN =         975.1017

          OUT:                                     OUT:
          ----                                     ----
             STORAGE =           0.0000               STORAGE =           0.0000
       CONSTANT HEAD =           0.0000         CONSTANT HEAD =           0.0000
               WELLS =           0.0000                 WELLS =           0.0000
       RIVER LEAKAGE =       19298.7832         RIVER LEAKAGE =         975.1772

           TOTAL OUT =       19298.7832             TOTAL OUT =         975.1772

            IN - OUT =          -0.5195              IN - OUT =      -7.5562E-02

 PERCENT DISCREPANCY =          -0.00     PERCENT DISCREPANCY =          -0.01






         TIME SUMMARY AT END OF TIME STEP    9 IN STRESS PERIOD    2
                    SECONDS     MINUTES      HOURS       DAYS        YEARS
                    -----------------------------------------------------------
   TIME STEP LENGTH  86400.      1440.0      24.000      1.0000     2.73785E-03
 STRESS PERIOD TIME 7.77600E+05  12960.      216.00      9.0000     2.46407E-02
         TOTAL TIME 8.64000E+05  14400.      240.00      10.000     2.73785E-02
1

 SOLVING FOR HEAD 

 OUTPUT CONTROL FOR STRESS PERIOD    2   TIME STEP   10
    SAVE HEAD FOR ALL LAYERS
    SAVE DRAWDOWN FOR ALL LAYERS
    SAVE BUDGET
    PRINT HEAD FOR ALL LAYERS
    PRINT BUDGET
 UBDSV1 SAVING "         STORAGE" ON UNIT  53 AT TIME STEP 10, STRESS PERIOD   2
 UBDSV2 SAVING "   CONSTANT HEAD" ON UNIT  53 AT TIME STEP 10, STRESS PERIOD   2
 UBDSV1 SAVING "FLOW RIGHT FACE " ON UNIT  53 AT TIME STEP 10, STRESS PERIOD   2
 UBDSV1 SAVING "FLOW FRONT FACE " ON UNIT  53 AT TIME STEP 10, STRESS PERIOD   2
 UBDSV1 SAVING "FLOW LOWER FACE " ON UNIT  53 AT TIME STEP 10, STRESS PERIOD   2
1
              HEAD IN LAYER   1 AT END OF TIME STEP  10 IN STRESS PERIOD    2
  ---------------------------------------------------------------------------

            1           2           3           4           5           6           7           8           9          10
 ........................................................................................................................
   1    9.999       9.538       9.013       8.359       7.522       6.457       5.143       3.591       1.851      6.1517E-03
   2    9.999       9.538       9.013       8.359       7.522       6.457       5.143       3.591       1.851      6.1517E-03
   3    9.999       9.538       9.013       8.359       7.522       6.457       5.143       3.591       1.851      6.1517E-03
   4    9.999       9.538       9.013       8.359       7.522       6.457       5.143       3.591       1.851      6.1517E-03
   5    9.999       9.538       9.013       8.359       7.522       6.457       5.143       3.591       1.851      6.1517E-03
   6    9.999       9.538       9.013       8.359       7.522       6.457       5.143       3.591       1.851      6.1517E-03
   7    9.999       9.538       9.013       8.359       7.522       6.457       5.143       3.591       1.851      6.1517E-03
   8    9.999       9.538       9.013       8.359       7.522       6.457       5.143       3.591       1.851      6.1517E-03
   9    9.999       9.538       9.013       8.359       7.522       6.457       5.143       3.591       1.851      6.1517E-03
  10    9.999       9.538       9.013       8.359       7.522       6.457       5.143       3.591       1.851      6.1517E-03
1
              HEAD IN LAYER   2 AT END OF TIME STEP  10 IN STRESS PERIOD    2
  ---------------------------------------------------------------------------

            1           2           3           4           5           6           7           8           9          10
 ........................................................................................................................
   1    9.999       9.538       9.013       8.359       7.522       6.457       5.143       3.591       1.851      6.1517E-03
   2    9.999       9.538       9.013       8.359       7.522       6.457       5.143       3.591       1.851      6.1517E-03
   3    9.999       9.538       9.013       8.359       7.522       6.457       5.143       3.591       1.851      6.1517E-03
   4    9.999       9.538       9.013       8.359       7.522       6.457       5.143       3.591       1.851      6.1517E-03
   5    9.999       9.538       9.013       8.359       7.522       6.457       5.143       3.591       1.851      6.1517E-03
   6    9.999       9.538       9.013       8.359       7.522       6.457       5.143       3.591       1.851      6.1517E-03
   7    9.999       9.538       9.013       8.359       7.522       6.457       5.143       3.591       1.851      6.1517E-03
   8    9.999       9.538       9.013       8.359       7.522       6.457       5.143       3.591       1.851      6.1517E-03
   9    9.999       9.538       9.013       8.359       7.522       6.457       5.143       3.591       1.851      6.1517E-03
  10    9.999       9.538       9.013       8.359       7.522       6.457       5.143       3.591       1.851      6.1517E-03
1
              HEAD IN LAYER   3 AT END OF TIME STEP  10 IN STRESS PERIOD    2
  ---------------------------------------------------------------------------

            1           2           3           4           5           6           7           8           9          10
 ........................................................................................................................
   1    9.999       9.538       9.013       8.359       7.522       6.457       5.143       3.591       1.851      6.1517E-03
   2    9.999       9.538       9.013       8.359       7.522       6.457       5.143       3.591       1.851      6.1517E-03
   3    9.999       9.538       9.013       8.359       7.522       6.457       5.143       3.591       1.851      6.1517E-03
   4    9.999       9.538       9.013       8.359       7.522       6.457       5.143       3.591       1.851      6.1517E-03
   5    9.999       9.538       9.013       8.359       7.522       6.457       5.143       3.591       1.851      6.1517E-03
   6    9.999       9.538       9.013       8.359       7.522       6.457       5.143       3.591       1.851      6.1517E-03
   7    9.999       9.538       9.013       8.359       7.522       6.457       5.143       3.591       1.851      6.1517E-03
   8    9.999       9.538       9.013       8.359       7.522       6.457       5.143       3.591       1.851      6.1517E-03
   9    9.999       9.538       9.013       8.359       7.522       6.457       5.143       3.591       1.851      6.1517E-03
  10    9.999       9.538       9.013       8.359       7.522       6.457       5.143       3.591       1.851      6.1517E-03

 HEAD WILL BE SAVED ON UNIT   51 AT END OF TIME STEP   10, STRESS PERIOD    2

 DRAWDOWN WILL BE SAVED ON UNIT   52 AT END OF TIME STEP   10, STRESS PERIOD    2
1
  VOLUMETRIC BUDGET FOR ENTIRE MODEL AT END OF TIME STEP   10, STRESS PERIOD   2
  ------------------------------------------------------------------------------

     CUMULATIVE VOLUMES      L**3       RATES FOR THIS TIME STEP      L**3/T
     ------------------                 ------------------------

           IN:                                      IN:
           ---                                      ---
             STORAGE =       19260.6406               STORAGE =         692.6024
       CONSTANT HEAD =           0.0000         CONSTANT HEAD =           0.0000
               WELLS =           0.0000                 WELLS =           0.0000
       RIVER LEAKAGE =         960.3220         RIVER LEAKAGE =         230.0971

            TOTAL IN =       20220.9629              TOTAL IN =         922.6995

          OUT:                                     OUT:
          ----                                     ----
             STORAGE =           0.0000               STORAGE =           0.0000
       CONSTANT HEAD =           0.0000         CONSTANT HEAD =           0.0000
               WELLS =           0.0000                 WELLS =           0.0000
       RIVER LEAKAGE =       20221.5332         RIVER LEAKAGE =         922.7507

           TOTAL OUT =       20221.5332             TOTAL OUT =         922.7507

            IN - OUT =          -0.5703              IN - OUT =      -5.1270E-02

 PERCENT DISCREPANCY =          -0.00     PERCENT DISCREPANCY =          -0.01






         TIME SUMMARY AT END OF TIME STEP   10 IN STRESS PERIOD    2
                    SECONDS     MINUTES      HOURS       DAYS        YEARS
                    -----------------------------------------------------------
   TIME STEP LENGTH  86400.      1440.0      24.000      1.0000     2.73785E-03
 STRESS PERIOD TIME 8.64000E+05  14400.      240.00      10.000     2.73785E-02
         TOTAL TIME 9.50400E+05  15840.      264.00      11.000     3.01164E-02
1

 SOLVING FOR HEAD 

 OUTPUT CONTROL FOR STRESS PERIOD    2   TIME STEP   11
    SAVE HEAD FOR ALL LAYERS
    SAVE DRAWDOWN FOR ALL LAYERS
    SAVE BUDGET
    PRINT HEAD FOR ALL LAYERS
    PRINT BUDGET
 UBDSV1 SAVING "         STORAGE" ON UNIT  53 AT TIME STEP 11, STRESS PERIOD   2
 UBDSV2 SAVING "   CONSTANT HEAD" ON UNIT  53 AT TIME STEP 11, STRESS PERIOD   2
 UBDSV1 SAVING "FLOW RIGHT FACE " ON UNIT  53 AT TIME STEP 11, STRESS PERIOD   2
 UBDSV1 SAVING "FLOW FRONT FACE " ON UNIT  53 AT TIME STEP 11, STRESS PERIOD   2
 UBDSV1 SAVING "FLOW LOWER FACE " ON UNIT  53 AT TIME STEP 11, STRESS PERIOD   2
1
              HEAD IN LAYER   1 AT END OF TIME STEP  11 IN STRESS PERIOD    2
  ---------------------------------------------------------------------------

            1           2           3           4           5           6           7           8           9          10
 ........................................................................................................................
   1    9.999       9.477       8.893       8.189       7.316       6.236       4.936       3.430       1.762      5.8561E-03
   2    9.999       9.477       8.893       8.189       7.316       6.236       4.936       3.430       1.762      5.8561E-03
   3    9.999       9.477       8.893       8.189       7.316       6.236       4.936       3.430       1.762      5.8561E-03
   4    9.999       9.477       8.893       8.189       7.316       6.236       4.936       3.430       1.762      5.8561E-03
   5    9.999       9.477       8.893       8.189       7.316       6.236       4.936       3.430       1.762      5.8561E-03
   6    9.999       9.477       8.893       8.189       7.316       6.236       4.936       3.430       1.762      5.8561E-03
   7    9.999       9.477       8.893       8.189       7.316       6.236       4.936       3.430       1.762      5.8561E-03
   8    9.999       9.477       8.893       8.189       7.316       6.236       4.936       3.430       1.762      5.8561E-03
   9    9.999       9.477       8.893       8.189       7.316       6.236       4.936       3.430       1.762      5.8561E-03
  10    9.999       9.477       8.893       8.189       7.316       6.236       4.936       3.430       1.762      5.8561E-03
1
              HEAD IN LAYER   2 AT END OF TIME STEP  11 IN STRESS PERIOD    2
  ---------------------------------------------------------------------------

            1           2           3           4           5           6           7           8           9          10
 ........................................................................................................................
   1    9.999       9.477       8.893       8.189       7.316       6.236       4.936       3.430       1.762      5.8561E-03
   2    9.999       9.477       8.893       8.189       7.316       6.236       4.936       3.430       1.762      5.8561E-03
   3    9.999       9.477       8.893       8.189       7.316       6.236       4.936       3.430       1.762      5.8561E-03
   4    9.999       9.477       8.893       8.189       7.316       6.236       4.936       3.430       1.762      5.8561E-03
   5    9.999       9.477       8.893       8.189       7.316       6.236       4.936       3.430       1.762      5.8561E-03
   6    9.999       9.477       8.893       8.189       7.316       6.236       4.936       3.430       1.762      5.8561E-03
   7    9.999       9.477       8.893       8.189       7.316       6.236       4.936       3.430       1.762      5.8561E-03
   8    9.999       9.477       8.893       8.189       7.316       6.236       4.936       3.430       1.762      5.8561E-03
   9    9.999       9.477       8.893       8.189       7.316       6.236       4.936       3.430       1.762      5.8561E-03
  10    9.999       9.477       8.893       8.189       7.316       6.236       4.936       3.430       1.762      5.8561E-03
1
              HEAD IN LAYER   3 AT END OF TIME STEP  11 IN STRESS PERIOD    2
  ---------------------------------------------------------------------------

            1           2           3           4           5           6           7           8           9          10
 ........................................................................................................................
   1    9.999       9.477       8.893       8.189       7.316       6.236       4.936       3.430       1.762      5.8561E-03
   2    9.999       9.477       8.893       8.189       7.316       6.236       4.936       3.430       1.762      5.8561E-03
   3    9.999       9.477       8.893       8.189       7.316       6.236       4.936       3.430       1.762      5.8561E-03
   4    9.999       9.477       8.893       8.189       7.316       6.236       4.936       3.430       1.762      5.8561E-03
   5    9.999       9.477       8.893       8.189       7.316       6.236       4.936       3.430       1.762      5.8561E-03
   6    9.999       9.477       8.893       8.189       7.316       6.236       4.936       3.430       1.762      5.8561E-03
   7    9.999       9.477       8.893       8.189       7.316       6.236       4.936       3.430       1.762      5.8561E-03
   8    9.999       9.477       8.893       8.189       7.316       6.236       4.936       3.430       1.762      5.8561E-03
   9    9.999       9.477       8.893       8.189       7.316       6.236       4.936       3.430       1.762      5.8561E-03
  10    9.999       9.477       8.893       8.189       7.316       6.236       4.936       3.430       1.762      5.8561E-03

 HEAD WILL BE SAVED ON UNIT   51 AT END OF TIME STEP   11, STRESS PERIOD    2

 DRAWDOWN WILL BE SAVED ON UNIT   52 AT END OF TIME STEP   11, STRESS PERIOD    2
1
  VOLUMETRIC BUDGET FOR ENTIRE MODEL AT END OF TIME STEP   11, STRESS PERIOD   2
  ------------------------------------------------------------------------------

     CUMULATIVE VOLUMES      L**3       RATES FOR THIS TIME STEP      L**3/T
     ------------------                 ------------------------

           IN:                                      IN:
           ---                                      ---
             STORAGE =       19878.1367               STORAGE =         617.4966
       CONSTANT HEAD =           0.0000         CONSTANT HEAD =           0.0000
               WELLS =           0.0000                 WELLS =           0.0000
       RIVER LEAKAGE =        1221.2141         RIVER LEAKAGE =         260.8922

            TOTAL IN =       21099.3516              TOTAL IN =         878.3887

          OUT:                                     OUT:
          ----                                     ----
             STORAGE =           0.0000               STORAGE =           0.0000
       CONSTANT HEAD =           0.0000         CONSTANT HEAD =           0.0000
               WELLS =           0.0000                 WELLS =           0.0000
       RIVER LEAKAGE =       21099.9453         RIVER LEAKAGE =         878.4126

           TOTAL OUT =       21099.9453             TOTAL OUT =         878.4126

            IN - OUT =          -0.5938              IN - OUT =      -2.3865E-02

 PERCENT DISCREPANCY =          -0.00     PERCENT DISCREPANCY =          -0.00






         TIME SUMMARY AT END OF TIME STEP   11 IN STRESS PERIOD    2
                    SECONDS     MINUTES      HOURS       DAYS        YEARS
                    -----------------------------------------------------------
   TIME STEP LENGTH  86400.      1440.0      24.000      1.0000     2.73785E-03
 STRESS PERIOD TIME 9.50400E+05  15840.      264.00      11.000     3.01164E-02
         TOTAL TIME 1.03680E+06  17280.      288.00      12.000     3.28542E-02
1

 SOLVING FOR HEAD 

 OUTPUT CONTROL FOR STRESS PERIOD    2   TIME STEP   12
    SAVE HEAD FOR ALL LAYERS
    SAVE DRAWDOWN FOR ALL LAYERS
    SAVE BUDGET
    PRINT HEAD FOR ALL LAYERS
    PRINT BUDGET
 UBDSV1 SAVING "         STORAGE" ON UNIT  53 AT TIME STEP 12, STRESS PERIOD   2
 UBDSV2 SAVING "   CONSTANT HEAD" ON UNIT  53 AT TIME STEP 12, STRESS PERIOD   2
 UBDSV1 SAVING "FLOW RIGHT FACE " ON UNIT  53 AT TIME STEP 12, STRESS PERIOD   2
 UBDSV1 SAVING "FLOW FRONT FACE " ON UNIT  53 AT TIME STEP 12, STRESS PERIOD   2
 UBDSV1 SAVING "FLOW LOWER FACE " ON UNIT  53 AT TIME STEP 12, STRESS PERIOD   2
1
              HEAD IN LAYER   1 AT END OF TIME STEP  12 IN STRESS PERIOD    2
  ---------------------------------------------------------------------------

            1           2           3           4           5           6           7           8           9          10
 ........................................................................................................................
   1    9.998       9.419       8.782       8.034       7.130       6.041       4.756       3.291       1.686      5.6029E-03
   2    9.998       9.419       8.782       8.034       7.130       6.041       4.756       3.291       1.686      5.6029E-03
   3    9.998       9.419       8.782       8.034       7.130       6.041       4.756       3.291       1.686      5.6029E-03
   4    9.998       9.419       8.782       8.034       7.130       6.041       4.756       3.291       1.686      5.6029E-03
   5    9.998       9.419       8.782       8.034       7.130       6.041       4.756       3.291       1.686      5.6029E-03
   6    9.998       9.419       8.782       8.034       7.130       6.041       4.756       3.291       1.686      5.6029E-03
   7    9.998       9.419       8.782       8.034       7.130       6.041       4.756       3.291       1.686      5.6029E-03
   8    9.998       9.419       8.782       8.034       7.130       6.041       4.756       3.291       1.686      5.6029E-03
   9    9.998       9.419       8.782       8.034       7.130       6.041       4.756       3.291       1.686      5.6029E-03
  10    9.998       9.419       8.782       8.034       7.130       6.041       4.756       3.291       1.686      5.6029E-03
1
              HEAD IN LAYER   2 AT END OF TIME STEP  12 IN STRESS PERIOD    2
  ---------------------------------------------------------------------------

            1           2           3           4           5           6           7           8           9          10
 ........................................................................................................................
   1    9.998       9.419       8.782       8.034       7.130       6.041       4.756       3.291       1.686      5.6029E-03
   2    9.998       9.419       8.782       8.034       7.130       6.041       4.756       3.291       1.686      5.6029E-03
   3    9.998       9.419       8.782       8.034       7.130       6.041       4.756       3.291       1.686      5.6029E-03
   4    9.998       9.419       8.782       8.034       7.130       6.041       4.756       3.291       1.686      5.6029E-03
   5    9.998       9.419       8.782       8.034       7.130       6.041       4.756       3.291       1.686      5.6029E-03
   6    9.998       9.419       8.782       8.034       7.130       6.041       4.756       3.291       1.686      5.6029E-03
   7    9.998       9.419       8.782       8.034       7.130       6.041       4.756       3.291       1.686      5.6029E-03
   8    9.998       9.419       8.782       8.034       7.130       6.041       4.756       3.291       1.686      5.6029E-03
   9    9.998       9.419       8.782       8.034       7.130       6.041       4.756       3.291       1.686      5.6029E-03
  10    9.998       9.419       8.782       8.034       7.130       6.041       4.756       3.291       1.686      5.6029E-03
1
              HEAD IN LAYER   3 AT END OF TIME STEP  12 IN STRESS PERIOD    2
  ---------------------------------------------------------------------------

            1           2           3           4           5           6           7           8           9          10
 ........................................................................................................................
   1    9.998       9.419       8.782       8.034       7.130       6.041       4.756       3.291       1.686      5.6029E-03
   2    9.998       9.419       8.782       8.034       7.130       6.041       4.756       3.291       1.686      5.6029E-03
   3    9.998       9.419       8.782       8.034       7.130       6.041       4.756       3.291       1.686      5.6029E-03
   4    9.998       9.419       8.782       8.034       7.130       6.041       4.756       3.291       1.686      5.6029E-03
   5    9.998       9.419       8.782       8.034       7.130       6.041       4.756       3.291       1.686      5.6029E-03
   6    9.998       9.419       8.782       8.034       7.130       6.041       4.756       3.291       1.686      5.6029E-03
   7    9.998       9.419       8.782       8.034       7.130       6.041       4.756       3.291       1.686      5.6029E-03
   8    9.998       9.419       8.782       8.034       7.130       6.041       4.756       3.291       1.686      5.6029E-03
   9    9.998       9.419       8.782       8.034       7.130       6.041       4.756       3.291       1.686      5.6029E-03
  10    9.998       9.419       8.782       8.034       7.130       6.041       4.756       3.291       1.686      5.6029E-03

 HEAD WILL BE SAVED ON UNIT   51 AT END OF TIME STEP   12, STRESS PERIOD    2

 DRAWDOWN WILL BE SAVED ON UNIT   52 AT END OF TIME STEP   12, STRESS PERIOD    2
1
  VOLUMETRIC BUDGET FOR ENTIRE MODEL AT END OF TIME STEP   12, STRESS PERIOD   2
  ------------------------------------------------------------------------------

     CUMULATIVE VOLUMES      L**3       RATES FOR THIS TIME STEP      L**3/T
     ------------------                 ------------------------

           IN:                                      IN:
           ---                                      ---
             STORAGE =       20428.9238               STORAGE =         550.7875
       CONSTANT HEAD =           0.0000         CONSTANT HEAD =           0.0000
               WELLS =           0.0000                 WELLS =           0.0000
       RIVER LEAKAGE =        1510.8749         RIVER LEAKAGE =         289.6608

            TOTAL IN =       21939.7988              TOTAL IN =         840.4482

          OUT:                                     OUT:
          ----                                     ----
             STORAGE =           0.0000               STORAGE =           0.0000
       CONSTANT HEAD =           0.0000         CONSTANT HEAD =           0.0000
               WELLS =           0.0000                 WELLS =           0.0000
       RIVER LEAKAGE =       21940.3867         RIVER LEAKAGE =         840.4413

           TOTAL OUT =       21940.3867             TOTAL OUT =         840.4413

            IN - OUT =          -0.5879              IN - OUT =       6.8970E-03

 PERCENT DISCREPANCY =          -0.00     PERCENT DISCREPANCY =           0.00






         TIME SUMMARY AT END OF TIME STEP   12 IN STRESS PERIOD    2
                    SECONDS     MINUTES      HOURS       DAYS        YEARS
                    -----------------------------------------------------------
   TIME STEP LENGTH  86400.      1440.0      24.000      1.0000     2.73785E-03
 STRESS PERIOD TIME 1.03680E+06  17280.      288.00      12.000     3.28542E-02
         TOTAL TIME 1.12320E+06  18720.      312.00      13.000     3.55921E-02
1

 SOLVING FOR HEAD 

 OUTPUT CONTROL FOR STRESS PERIOD    2   TIME STEP   13
    SAVE HEAD FOR ALL LAYERS
    SAVE DRAWDOWN FOR ALL LAYERS
    SAVE BUDGET
    PRINT HEAD FOR ALL LAYERS
    PRINT BUDGET
 UBDSV1 SAVING "         STORAGE" ON UNIT  53 AT TIME STEP 13, STRESS PERIOD   2
 UBDSV2 SAVING "   CONSTANT HEAD" ON UNIT  53 AT TIME STEP 13, STRESS PERIOD   2
 UBDSV1 SAVING "FLOW RIGHT FACE " ON UNIT  53 AT TIME STEP 13, STRESS PERIOD   2
 UBDSV1 SAVING "FLOW FRONT FACE " ON UNIT  53 AT TIME STEP 13, STRESS PERIOD   2
 UBDSV1 SAVING "FLOW LOWER FACE " ON UNIT  53 AT TIME STEP 13, STRESS PERIOD   2
1
              HEAD IN LAYER   1 AT END OF TIME STEP  13 IN STRESS PERIOD    2
  ---------------------------------------------------------------------------

            1           2           3           4           5           6           7           8           9          10
 ........................................................................................................................
   1    9.998       9.366       8.680       7.892       6.963       5.867       4.598       3.170       1.620      5.3841E-03
   2    9.998       9.366       8.680       7.892       6.963       5.867       4.598       3.170       1.620      5.3841E-03
   3    9.998       9.366       8.680       7.892       6.963       5.867       4.598       3.170       1.620      5.3841E-03
   4    9.998       9.366       8.680       7.892       6.963       5.867       4.598       3.170       1.620      5.3841E-03
   5    9.998       9.366       8.680       7.892       6.963       5.867       4.598       3.170       1.620      5.3841E-03
   6    9.998       9.366       8.680       7.892       6.963       5.867       4.598       3.170       1.620      5.3841E-03
   7    9.998       9.366       8.680       7.892       6.963       5.867       4.598       3.170       1.620      5.3841E-03
   8    9.998       9.366       8.680       7.892       6.963       5.867       4.598       3.170       1.620      5.3841E-03
   9    9.998       9.366       8.680       7.892       6.963       5.867       4.598       3.170       1.620      5.3841E-03
  10    9.998       9.366       8.680       7.892       6.963       5.867       4.598       3.170       1.620      5.3841E-03
1
              HEAD IN LAYER   2 AT END OF TIME STEP  13 IN STRESS PERIOD    2
  ---------------------------------------------------------------------------

            1           2           3           4           5           6           7           8           9          10
 ........................................................................................................................
   1    9.998       9.366       8.680       7.892       6.963       5.867       4.598       3.170       1.620      5.3841E-03
   2    9.998       9.366       8.680       7.892       6.963       5.867       4.598       3.170       1.620      5.3841E-03
   3    9.998       9.366       8.680       7.892       6.963       5.867       4.598       3.170       1.620      5.3841E-03
   4    9.998       9.366       8.680       7.892       6.963       5.867       4.598       3.170       1.620      5.3841E-03
   5    9.998       9.366       8.680       7.892       6.963       5.867       4.598       3.170       1.620      5.3841E-03
   6    9.998       9.366       8.680       7.892       6.963       5.867       4.598       3.170       1.620      5.3841E-03
   7    9.998       9.366       8.680       7.892       6.963       5.867       4.598       3.170       1.620      5.3841E-03
   8    9.998       9.366       8.680       7.892       6.963       5.867       4.598       3.170       1.620      5.3841E-03
   9    9.998       9.366       8.680       7.892       6.963       5.867       4.598       3.170       1.620      5.3841E-03
  10    9.998       9.366       8.680       7.892       6.963       5.867       4.598       3.170       1.620      5.3841E-03
1
              HEAD IN LAYER   3 AT END OF TIME STEP  13 IN STRESS PERIOD    2
  ---------------------------------------------------------------------------

            1           2           3           4           5           6           7           8           9          10
 ........................................................................................................................
   1    9.998       9.366       8.680       7.892       6.963       5.867       4.598       3.170       1.620      5.3841E-03
   2    9.998       9.366       8.680       7.892       6.963       5.867       4.598       3.170       1.620      5.3841E-03
   3    9.998       9.366       8.680       7.892       6.963       5.867       4.598       3.170       1.620      5.3841E-03
   4    9.998       9.366       8.680       7.892       6.963       5.867       4.598       3.170       1.620      5.3841E-03
   5    9.998       9.366       8.680       7.892       6.963       5.867       4.598       3.170       1.620      5.3841E-03
   6    9.998       9.366       8.680       7.892       6.963       5.867       4.598       3.170       1.620      5.3841E-03
   7    9.998       9.366       8.680       7.892       6.963       5.867       4.598       3.170       1.620      5.3841E-03
   8    9.998       9.366       8.680       7.892       6.963       5.867       4.598       3.170       1.620      5.3841E-03
   9    9.998       9.366       8.680       7.892       6.963       5.867       4.598       3.170       1.620      5.3841E-03
  10    9.998       9.366       8.680       7.892       6.963       5.867       4.598       3.170       1.620      5.3841E-03

 HEAD WILL BE SAVED ON UNIT   51 AT END OF TIME STEP   13, STRESS PERIOD    2

 DRAWDOWN WILL BE SAVED ON UNIT   52 AT END OF TIME STEP   13, STRESS PERIOD    2
1
  VOLUMETRIC BUDGET FOR ENTIRE MODEL AT END OF TIME STEP   13, STRESS PERIOD   2
  ------------------------------------------------------------------------------

     CUMULATIVE VOLUMES      L**3       RATES FOR THIS TIME STEP      L**3/T
     ------------------                 ------------------------

           IN:                                      IN:
           ---                                      ---
             STORAGE =       20920.3359               STORAGE =         491.4131
       CONSTANT HEAD =           0.0000         CONSTANT HEAD =           0.0000
               WELLS =           0.0000                 WELLS =           0.0000
       RIVER LEAKAGE =        1826.9999         RIVER LEAKAGE =         316.1250

            TOTAL IN =       22747.3359              TOTAL IN =         807.5380

          OUT:                                     OUT:
          ----                                     ----
             STORAGE =           0.0000               STORAGE =           0.0000
       CONSTANT HEAD =           0.0000         CONSTANT HEAD =           0.0000
               WELLS =           0.0000                 WELLS =           0.0000
       RIVER LEAKAGE =       22747.9961         RIVER LEAKAGE =         807.6104

           TOTAL OUT =       22747.9961             TOTAL OUT =         807.6104

            IN - OUT =          -0.6602              IN - OUT =      -7.2327E-02

 PERCENT DISCREPANCY =          -0.00     PERCENT DISCREPANCY =          -0.01






         TIME SUMMARY AT END OF TIME STEP   13 IN STRESS PERIOD    2
                    SECONDS     MINUTES      HOURS       DAYS        YEARS
                    -----------------------------------------------------------
   TIME STEP LENGTH  86400.      1440.0      24.000      1.0000     2.73785E-03
 STRESS PERIOD TIME 1.12320E+06  18720.      312.00      13.000     3.55921E-02
         TOTAL TIME 1.20960E+06  20160.      336.00      14.000     3.83299E-02
1

 SOLVING FOR HEAD 

 OUTPUT CONTROL FOR STRESS PERIOD    2   TIME STEP   14
    SAVE HEAD FOR ALL LAYERS
    SAVE DRAWDOWN FOR ALL LAYERS
    SAVE BUDGET
    PRINT HEAD FOR ALL LAYERS
    PRINT BUDGET
 UBDSV1 SAVING "         STORAGE" ON UNIT  53 AT TIME STEP 14, STRESS PERIOD   2
 UBDSV2 SAVING "   CONSTANT HEAD" ON UNIT  53 AT TIME STEP 14, STRESS PERIOD   2
 UBDSV1 SAVING "FLOW RIGHT FACE " ON UNIT  53 AT TIME STEP 14, STRESS PERIOD   2
 UBDSV1 SAVING "FLOW FRONT FACE " ON UNIT  53 AT TIME STEP 14, STRESS PERIOD   2
 UBDSV1 SAVING "FLOW LOWER FACE " ON UNIT  53 AT TIME STEP 14, STRESS PERIOD   2
1
              HEAD IN LAYER   1 AT END OF TIME STEP  14 IN STRESS PERIOD    2
  ---------------------------------------------------------------------------

            1           2           3           4           5           6           7           8           9          10
 ........................................................................................................................
   1    9.998       9.317       8.587       7.764       6.813       5.713       4.458       3.064       1.563      5.1934E-03
   2    9.998       9.317       8.587       7.764       6.813       5.713       4.458       3.064       1.563      5.1934E-03
   3    9.998       9.317       8.587       7.764       6.813       5.713       4.458       3.064       1.563      5.1934E-03
   4    9.998       9.317       8.587       7.764       6.813       5.713       4.458       3.064       1.563      5.1934E-03
   5    9.998       9.317       8.587       7.764       6.813       5.713       4.458       3.064       1.563      5.1934E-03
   6    9.998       9.317       8.587       7.764       6.813       5.713       4.458       3.064       1.563      5.1934E-03
   7    9.998       9.317       8.587       7.764       6.813       5.713       4.458       3.064       1.563      5.1934E-03
   8    9.998       9.317       8.587       7.764       6.813       5.713       4.458       3.064       1.563      5.1934E-03
   9    9.998       9.317       8.587       7.764       6.813       5.713       4.458       3.064       1.563      5.1934E-03
  10    9.998       9.317       8.587       7.764       6.813       5.713       4.458       3.064       1.563      5.1934E-03
1
              HEAD IN LAYER   2 AT END OF TIME STEP  14 IN STRESS PERIOD    2
  ---------------------------------------------------------------------------

            1           2           3           4           5           6           7           8           9          10
 ........................................................................................................................
   1    9.998       9.317       8.587       7.764       6.813       5.713       4.458       3.064       1.563      5.1934E-03
   2    9.998       9.317       8.587       7.764       6.813       5.713       4.458       3.064       1.563      5.1934E-03
   3    9.998       9.317       8.587       7.764       6.813       5.713       4.458       3.064       1.563      5.1934E-03
   4    9.998       9.317       8.587       7.764       6.813       5.713       4.458       3.064       1.563      5.1934E-03
   5    9.998       9.317       8.587       7.764       6.813       5.713       4.458       3.064       1.563      5.1934E-03
   6    9.998       9.317       8.587       7.764       6.813       5.713       4.458       3.064       1.563      5.1934E-03
   7    9.998       9.317       8.587       7.764       6.813       5.713       4.458       3.064       1.563      5.1934E-03
   8    9.998       9.317       8.587       7.764       6.813       5.713       4.458       3.064       1.563      5.1934E-03
   9    9.998       9.317       8.587       7.764       6.813       5.713       4.458       3.064       1.563      5.1934E-03
  10    9.998       9.317       8.587       7.764       6.813       5.713       4.458       3.064       1.563      5.1934E-03
1
              HEAD IN LAYER   3 AT END OF TIME STEP  14 IN STRESS PERIOD    2
  ---------------------------------------------------------------------------

            1           2           3           4           5           6           7           8           9          10
 ........................................................................................................................
   1    9.998       9.317       8.587       7.764       6.813       5.713       4.458       3.064       1.563      5.1934E-03
   2    9.998       9.317       8.587       7.764       6.813       5.713       4.458       3.064       1.563      5.1934E-03
   3    9.998       9.317       8.587       7.764       6.813       5.713       4.458       3.064       1.563      5.1934E-03
   4    9.998       9.317       8.587       7.764       6.813       5.713       4.458       3.064       1.563      5.1934E-03
   5    9.998       9.317       8.587       7.764       6.813       5.713       4.458       3.064       1.563      5.1934E-03
   6    9.998       9.317       8.587       7.764       6.813       5.713       4.458       3.064       1.563      5.1934E-03
   7    9.998       9.317       8.587       7.764       6.813       5.713       4.458       3.064       1.563      5.1934E-03
   8    9.998       9.317       8.587       7.764       6.813       5.713       4.458       3.064       1.563      5.1934E-03
   9    9.998       9.317       8.587       7.764       6.813       5.713       4.458       3.064       1.563      5.1934E-03
  10    9.998       9.317       8.587       7.764       6.813       5.713       4.458       3.064       1.563      5.1934E-03

 HEAD WILL BE SAVED ON UNIT   51 AT END OF TIME STEP   14, STRESS PERIOD    2

 DRAWDOWN WILL BE SAVED ON UNIT   52 AT END OF TIME STEP   14, STRESS PERIOD    2
1
  VOLUMETRIC BUDGET FOR ENTIRE MODEL AT END OF TIME STEP   14, STRESS PERIOD   2
  ------------------------------------------------------------------------------

     CUMULATIVE VOLUMES      L**3       RATES FOR THIS TIME STEP      L**3/T
     ------------------                 ------------------------

           IN:                                      IN:
           ---                                      ---
             STORAGE =       21358.8379               STORAGE =         438.5016
       CONSTANT HEAD =           0.0000         CONSTANT HEAD =           0.0000
               WELLS =           0.0000                 WELLS =           0.0000
       RIVER LEAKAGE =        2167.4819         RIVER LEAKAGE =         340.4819

            TOTAL IN =       23526.3203              TOTAL IN =         778.9836

          OUT:                                     OUT:
          ----                                     ----
             STORAGE =           0.0000               STORAGE =           0.0000
       CONSTANT HEAD =           0.0000         CONSTANT HEAD =           0.0000
               WELLS =           0.0000                 WELLS =           0.0000
       RIVER LEAKAGE =       23527.0078         RIVER LEAKAGE =         779.0125

           TOTAL OUT =       23527.0078             TOTAL OUT =         779.0125

            IN - OUT =          -0.6875              IN - OUT =      -2.8931E-02

 PERCENT DISCREPANCY =          -0.00     PERCENT DISCREPANCY =          -0.00






         TIME SUMMARY AT END OF TIME STEP   14 IN STRESS PERIOD    2
                    SECONDS     MINUTES      HOURS       DAYS        YEARS
                    -----------------------------------------------------------
   TIME STEP LENGTH  86400.      1440.0      24.000      1.0000     2.73785E-03
 STRESS PERIOD TIME 1.20960E+06  20160.      336.00      14.000     3.83299E-02
         TOTAL TIME 1.29600E+06  21600.      360.00      15.000     4.10678E-02
1

 SOLVING FOR HEAD 

 OUTPUT CONTROL FOR STRESS PERIOD    2   TIME STEP   15
    SAVE HEAD FOR ALL LAYERS
    SAVE DRAWDOWN FOR ALL LAYERS
    SAVE BUDGET
    PRINT HEAD FOR ALL LAYERS
    PRINT BUDGET
 UBDSV1 SAVING "         STORAGE" ON UNIT  53 AT TIME STEP 15, STRESS PERIOD   2
 UBDSV2 SAVING "   CONSTANT HEAD" ON UNIT  53 AT TIME STEP 15, STRESS PERIOD   2
 UBDSV1 SAVING "FLOW RIGHT FACE " ON UNIT  53 AT TIME STEP 15, STRESS PERIOD   2
 UBDSV1 SAVING "FLOW FRONT FACE " ON UNIT  53 AT TIME STEP 15, STRESS PERIOD   2
 UBDSV1 SAVING "FLOW LOWER FACE " ON UNIT  53 AT TIME STEP 15, STRESS PERIOD   2
1
              HEAD IN LAYER   1 AT END OF TIME STEP  15 IN STRESS PERIOD    2
  ---------------------------------------------------------------------------

            1           2           3           4           5           6           7           8           9          10
 ........................................................................................................................
   1    9.998       9.273       8.503       7.649       6.679       5.576       4.335       2.970       1.513      5.0264E-03
   2    9.998       9.273       8.503       7.649       6.679       5.576       4.335       2.970       1.513      5.0264E-03
   3    9.998       9.273       8.503       7.649       6.679       5.576       4.335       2.970       1.513      5.0264E-03
   4    9.998       9.273       8.503       7.649       6.679       5.576       4.335       2.970       1.513      5.0264E-03
   5    9.998       9.273       8.503       7.649       6.679       5.576       4.335       2.970       1.513      5.0264E-03
   6    9.998       9.273       8.503       7.649       6.679       5.576       4.335       2.970       1.513      5.0264E-03
   7    9.998       9.273       8.503       7.649       6.679       5.576       4.335       2.970       1.513      5.0264E-03
   8    9.998       9.273       8.503       7.649       6.679       5.576       4.335       2.970       1.513      5.0264E-03
   9    9.998       9.273       8.503       7.649       6.679       5.576       4.335       2.970       1.513      5.0264E-03
  10    9.998       9.273       8.503       7.649       6.679       5.576       4.335       2.970       1.513      5.0264E-03
1
              HEAD IN LAYER   2 AT END OF TIME STEP  15 IN STRESS PERIOD    2
  ---------------------------------------------------------------------------

            1           2           3           4           5           6           7           8           9          10
 ........................................................................................................................
   1    9.998       9.273       8.503       7.649       6.679       5.576       4.335       2.970       1.513      5.0264E-03
   2    9.998       9.273       8.503       7.649       6.679       5.576       4.335       2.970       1.513      5.0264E-03
   3    9.998       9.273       8.503       7.649       6.679       5.576       4.335       2.970       1.513      5.0264E-03
   4    9.998       9.273       8.503       7.649       6.679       5.576       4.335       2.970       1.513      5.0264E-03
   5    9.998       9.273       8.503       7.649       6.679       5.576       4.335       2.970       1.513      5.0264E-03
   6    9.998       9.273       8.503       7.649       6.679       5.576       4.335       2.970       1.513      5.0264E-03
   7    9.998       9.273       8.503       7.649       6.679       5.576       4.335       2.970       1.513      5.0264E-03
   8    9.998       9.273       8.503       7.649       6.679       5.576       4.335       2.970       1.513      5.0264E-03
   9    9.998       9.273       8.503       7.649       6.679       5.576       4.335       2.970       1.513      5.0264E-03
  10    9.998       9.273       8.503       7.649       6.679       5.576       4.335       2.970       1.513      5.0264E-03
1
              HEAD IN LAYER   3 AT END OF TIME STEP  15 IN STRESS PERIOD    2
  ---------------------------------------------------------------------------

            1           2           3           4           5           6           7           8           9          10
 ........................................................................................................................
   1    9.998       9.273       8.503       7.649       6.679       5.576       4.335       2.970       1.513      5.0264E-03
   2    9.998       9.273       8.503       7.649       6.679       5.576       4.335       2.970       1.513      5.0264E-03
   3    9.998       9.273       8.503       7.649       6.679       5.576       4.335       2.970       1.513      5.0264E-03
   4    9.998       9.273       8.503       7.649       6.679       5.576       4.335       2.970       1.513      5.0264E-03
   5    9.998       9.273       8.503       7.649       6.679       5.576       4.335       2.970       1.513      5.0264E-03
   6    9.998       9.273       8.503       7.649       6.679       5.576       4.335       2.970       1.513      5.0264E-03
   7    9.998       9.273       8.503       7.649       6.679       5.576       4.335       2.970       1.513      5.0264E-03
   8    9.998       9.273       8.503       7.649       6.679       5.576       4.335       2.970       1.513      5.0264E-03
   9    9.998       9.273       8.503       7.649       6.679       5.576       4.335       2.970       1.513      5.0264E-03
  10    9.998       9.273       8.503       7.649       6.679       5.576       4.335       2.970       1.513      5.0264E-03

 HEAD WILL BE SAVED ON UNIT   51 AT END OF TIME STEP   15, STRESS PERIOD    2

 DRAWDOWN WILL BE SAVED ON UNIT   52 AT END OF TIME STEP   15, STRESS PERIOD    2
1
  VOLUMETRIC BUDGET FOR ENTIRE MODEL AT END OF TIME STEP   15, STRESS PERIOD   2
  ------------------------------------------------------------------------------

     CUMULATIVE VOLUMES      L**3       RATES FOR THIS TIME STEP      L**3/T
     ------------------                 ------------------------

           IN:                                      IN:
           ---                                      ---
             STORAGE =       21750.1562               STORAGE =         391.3193
       CONSTANT HEAD =           0.0000         CONSTANT HEAD =           0.0000
               WELLS =           0.0000                 WELLS =           0.0000
       RIVER LEAKAGE =        2530.0286         RIVER LEAKAGE =         362.5467

            TOTAL IN =       24280.1855              TOTAL IN =         753.8660

          OUT:                                     OUT:
          ----                                     ----
             STORAGE =           0.0000               STORAGE =           0.0000
       CONSTANT HEAD =           0.0000         CONSTANT HEAD =           0.0000
               WELLS =           0.0000                 WELLS =           0.0000
       RIVER LEAKAGE =       24280.9707         RIVER LEAKAGE =         753.9622

           TOTAL OUT =       24280.9707             TOTAL OUT =         753.9622

            IN - OUT =          -0.7852              IN - OUT =      -9.6252E-02

 PERCENT DISCREPANCY =          -0.00     PERCENT DISCREPANCY =          -0.01






         TIME SUMMARY AT END OF TIME STEP   15 IN STRESS PERIOD    2
                    SECONDS     MINUTES      HOURS       DAYS        YEARS
                    -----------------------------------------------------------
   TIME STEP LENGTH  86400.      1440.0      24.000      1.0000     2.73785E-03
 STRESS PERIOD TIME 1.29600E+06  21600.      360.00      15.000     4.10678E-02
         TOTAL TIME 1.38240E+06  23040.      384.00      16.000     4.38056E-02
1

 SOLVING FOR HEAD 

 OUTPUT CONTROL FOR STRESS PERIOD    2   TIME STEP   16
    SAVE HEAD FOR ALL LAYERS
    SAVE DRAWDOWN FOR ALL LAYERS
    SAVE BUDGET
    PRINT HEAD FOR ALL LAYERS
    PRINT BUDGET
 UBDSV1 SAVING "         STORAGE" ON UNIT  53 AT TIME STEP 16, STRESS PERIOD   2
 UBDSV2 SAVING "   CONSTANT HEAD" ON UNIT  53 AT TIME STEP 16, STRESS PERIOD   2
 UBDSV1 SAVING "FLOW RIGHT FACE " ON UNIT  53 AT TIME STEP 16, STRESS PERIOD   2
 UBDSV1 SAVING "FLOW FRONT FACE " ON UNIT  53 AT TIME STEP 16, STRESS PERIOD   2
 UBDSV1 SAVING "FLOW LOWER FACE " ON UNIT  53 AT TIME STEP 16, STRESS PERIOD   2
1
              HEAD IN LAYER   1 AT END OF TIME STEP  16 IN STRESS PERIOD    2
  ---------------------------------------------------------------------------

            1           2           3           4           5           6           7           8           9          10
 ........................................................................................................................
   1    9.998       9.232       8.427       7.545       6.559       5.453       4.225       2.888       1.469      4.8795E-03
   2    9.998       9.232       8.427       7.545       6.559       5.453       4.225       2.888       1.469      4.8795E-03
   3    9.998       9.232       8.427       7.545       6.559       5.453       4.225       2.888       1.469      4.8795E-03
   4    9.998       9.232       8.427       7.545       6.559       5.453       4.225       2.888       1.469      4.8795E-03
   5    9.998       9.232       8.427       7.545       6.559       5.453       4.225       2.888       1.469      4.8795E-03
   6    9.998       9.232       8.427       7.545       6.559       5.453       4.225       2.888       1.469      4.8795E-03
   7    9.998       9.232       8.427       7.545       6.559       5.453       4.225       2.888       1.469      4.8795E-03
   8    9.998       9.232       8.427       7.545       6.559       5.453       4.225       2.888       1.469      4.8795E-03
   9    9.998       9.232       8.427       7.545       6.559       5.453       4.225       2.888       1.469      4.8795E-03
  10    9.998       9.232       8.427       7.545       6.559       5.453       4.225       2.888       1.469      4.8795E-03
1
              HEAD IN LAYER   2 AT END OF TIME STEP  16 IN STRESS PERIOD    2
  ---------------------------------------------------------------------------

            1           2           3           4           5           6           7           8           9          10
 ........................................................................................................................
   1    9.998       9.232       8.427       7.545       6.559       5.453       4.225       2.888       1.469      4.8795E-03
   2    9.998       9.232       8.427       7.545       6.559       5.453       4.225       2.888       1.469      4.8795E-03
   3    9.998       9.232       8.427       7.545       6.559       5.453       4.225       2.888       1.469      4.8795E-03
   4    9.998       9.232       8.427       7.545       6.559       5.453       4.225       2.888       1.469      4.8795E-03
   5    9.998       9.232       8.427       7.545       6.559       5.453       4.225       2.888       1.469      4.8795E-03
   6    9.998       9.232       8.427       7.545       6.559       5.453       4.225       2.888       1.469      4.8795E-03
   7    9.998       9.232       8.427       7.545       6.559       5.453       4.225       2.888       1.469      4.8795E-03
   8    9.998       9.232       8.427       7.545       6.559       5.453       4.225       2.888       1.469      4.8795E-03
   9    9.998       9.232       8.427       7.545       6.559       5.453       4.225       2.888       1.469      4.8795E-03
  10    9.998       9.232       8.427       7.545       6.559       5.453       4.225       2.888       1.469      4.8795E-03
1
              HEAD IN LAYER   3 AT END OF TIME STEP  16 IN STRESS PERIOD    2
  ---------------------------------------------------------------------------

            1           2           3           4           5           6           7           8           9          10
 ........................................................................................................................
   1    9.998       9.232       8.427       7.545       6.559       5.453       4.225       2.888       1.469      4.8795E-03
   2    9.998       9.232       8.427       7.545       6.559       5.453       4.225       2.888       1.469      4.8795E-03
   3    9.998       9.232       8.427       7.545       6.559       5.453       4.225       2.888       1.469      4.8795E-03
   4    9.998       9.232       8.427       7.545       6.559       5.453       4.225       2.888       1.469      4.8795E-03
   5    9.998       9.232       8.427       7.545       6.559       5.453       4.225       2.888       1.469      4.8795E-03
   6    9.998       9.232       8.427       7.545       6.559       5.453       4.225       2.888       1.469      4.8795E-03
   7    9.998       9.232       8.427       7.545       6.559       5.453       4.225       2.888       1.469      4.8795E-03
   8    9.998       9.232       8.427       7.545       6.559       5.453       4.225       2.888       1.469      4.8795E-03
   9    9.998       9.232       8.427       7.545       6.559       5.453       4.225       2.888       1.469      4.8795E-03
  10    9.998       9.232       8.427       7.545       6.559       5.453       4.225       2.888       1.469      4.8795E-03

 HEAD WILL BE SAVED ON UNIT   51 AT END OF TIME STEP   16, STRESS PERIOD    2

 DRAWDOWN WILL BE SAVED ON UNIT   52 AT END OF TIME STEP   16, STRESS PERIOD    2
1
  VOLUMETRIC BUDGET FOR ENTIRE MODEL AT END OF TIME STEP   16, STRESS PERIOD   2
  ------------------------------------------------------------------------------

     CUMULATIVE VOLUMES      L**3       RATES FOR THIS TIME STEP      L**3/T
     ------------------                 ------------------------

           IN:                                      IN:
           ---                                      ---
             STORAGE =       22099.3867               STORAGE =         349.2297
       CONSTANT HEAD =           0.0000         CONSTANT HEAD =           0.0000
               WELLS =           0.0000                 WELLS =           0.0000
       RIVER LEAKAGE =        2912.6812         RIVER LEAKAGE =         382.6526

            TOTAL IN =       25012.0684              TOTAL IN =         731.8823

          OUT:                                     OUT:
          ----                                     ----
             STORAGE =           0.0000               STORAGE =           0.0000
       CONSTANT HEAD =           0.0000         CONSTANT HEAD =           0.0000
               WELLS =           0.0000                 WELLS =           0.0000
       RIVER LEAKAGE =       25012.8945         RIVER LEAKAGE =         731.9234

           TOTAL OUT =       25012.8945             TOTAL OUT =         731.9234

            IN - OUT =          -0.8262              IN - OUT =      -4.1077E-02

 PERCENT DISCREPANCY =          -0.00     PERCENT DISCREPANCY =          -0.01






         TIME SUMMARY AT END OF TIME STEP   16 IN STRESS PERIOD    2
                    SECONDS     MINUTES      HOURS       DAYS        YEARS
                    -----------------------------------------------------------
   TIME STEP LENGTH  86400.      1440.0      24.000      1.0000     2.73785E-03
 STRESS PERIOD TIME 1.38240E+06  23040.      384.00      16.000     4.38056E-02
         TOTAL TIME 1.46880E+06  24480.      408.00      17.000     4.65435E-02
1

 SOLVING FOR HEAD 

 OUTPUT CONTROL FOR STRESS PERIOD    2   TIME STEP   17
    SAVE HEAD FOR ALL LAYERS
    SAVE DRAWDOWN FOR ALL LAYERS
    SAVE BUDGET
    PRINT HEAD FOR ALL LAYERS
    PRINT BUDGET
 UBDSV1 SAVING "         STORAGE" ON UNIT  53 AT TIME STEP 17, STRESS PERIOD   2
 UBDSV2 SAVING "   CONSTANT HEAD" ON UNIT  53 AT TIME STEP 17, STRESS PERIOD   2
 UBDSV1 SAVING "FLOW RIGHT FACE " ON UNIT  53 AT TIME STEP 17, STRESS PERIOD   2
 UBDSV1 SAVING "FLOW FRONT FACE " ON UNIT  53 AT TIME STEP 17, STRESS PERIOD   2
 UBDSV1 SAVING "FLOW LOWER FACE " ON UNIT  53 AT TIME STEP 17, STRESS PERIOD   2
1
              HEAD IN LAYER   1 AT END OF TIME STEP  17 IN STRESS PERIOD    2
  ---------------------------------------------------------------------------

            1           2           3           4           5           6           7           8           9          10
 ........................................................................................................................
   1    9.998       9.196       8.358       7.452       6.452       5.344       4.128       2.815       1.430      4.7498E-03
   2    9.998       9.196       8.358       7.452       6.452       5.344       4.128       2.815       1.430      4.7498E-03
   3    9.998       9.196       8.358       7.452       6.452       5.344       4.128       2.815       1.430      4.7498E-03
   4    9.998       9.196       8.358       7.452       6.452       5.344       4.128       2.815       1.430      4.7498E-03
   5    9.998       9.196       8.358       7.452       6.452       5.344       4.128       2.815       1.430      4.7498E-03
   6    9.998       9.196       8.358       7.452       6.452       5.344       4.128       2.815       1.430      4.7498E-03
   7    9.998       9.196       8.358       7.452       6.452       5.344       4.128       2.815       1.430      4.7498E-03
   8    9.998       9.196       8.358       7.452       6.452       5.344       4.128       2.815       1.430      4.7498E-03
   9    9.998       9.196       8.358       7.452       6.452       5.344       4.128       2.815       1.430      4.7498E-03
  10    9.998       9.196       8.358       7.452       6.452       5.344       4.128       2.815       1.430      4.7498E-03
1
              HEAD IN LAYER   2 AT END OF TIME STEP  17 IN STRESS PERIOD    2
  ---------------------------------------------------------------------------

            1           2           3           4           5           6           7           8           9          10
 ........................................................................................................................
   1    9.998       9.196       8.358       7.452       6.452       5.344       4.128       2.815       1.430      4.7498E-03
   2    9.998       9.196       8.358       7.452       6.452       5.344       4.128       2.815       1.430      4.7498E-03
   3    9.998       9.196       8.358       7.452       6.452       5.344       4.128       2.815       1.430      4.7498E-03
   4    9.998       9.196       8.358       7.452       6.452       5.344       4.128       2.815       1.430      4.7498E-03
   5    9.998       9.196       8.358       7.452       6.452       5.344       4.128       2.815       1.430      4.7498E-03
   6    9.998       9.196       8.358       7.452       6.452       5.344       4.128       2.815       1.430      4.7498E-03
   7    9.998       9.196       8.358       7.452       6.452       5.344       4.128       2.815       1.430      4.7498E-03
   8    9.998       9.196       8.358       7.452       6.452       5.344       4.128       2.815       1.430      4.7498E-03
   9    9.998       9.196       8.358       7.452       6.452       5.344       4.128       2.815       1.430      4.7498E-03
  10    9.998       9.196       8.358       7.452       6.452       5.344       4.128       2.815       1.430      4.7498E-03
1
              HEAD IN LAYER   3 AT END OF TIME STEP  17 IN STRESS PERIOD    2
  ---------------------------------------------------------------------------

            1           2           3           4           5           6           7           8           9          10
 ........................................................................................................................
   1    9.998       9.196       8.358       7.452       6.452       5.344       4.128       2.815       1.430      4.7498E-03
   2    9.998       9.196       8.358       7.452       6.452       5.344       4.128       2.815       1.430      4.7498E-03
   3    9.998       9.196       8.358       7.452       6.452       5.344       4.128       2.815       1.430      4.7498E-03
   4    9.998       9.196       8.358       7.452       6.452       5.344       4.128       2.815       1.430      4.7498E-03
   5    9.998       9.196       8.358       7.452       6.452       5.344       4.128       2.815       1.430      4.7498E-03
   6    9.998       9.196       8.358       7.452       6.452       5.344       4.128       2.815       1.430      4.7498E-03
   7    9.998       9.196       8.358       7.452       6.452       5.344       4.128       2.815       1.430      4.7498E-03
   8    9.998       9.196       8.358       7.452       6.452       5.344       4.128       2.815       1.430      4.7498E-03
   9    9.998       9.196       8.358       7.452       6.452       5.344       4.128       2.815       1.430      4.7498E-03
  10    9.998       9.196       8.358       7.452       6.452       5.344       4.128       2.815       1.430      4.7498E-03

 HEAD WILL BE SAVED ON UNIT   51 AT END OF TIME STEP   17, STRESS PERIOD    2

 DRAWDOWN WILL BE SAVED ON UNIT   52 AT END OF TIME STEP   17, STRESS PERIOD    2
1
  VOLUMETRIC BUDGET FOR ENTIRE MODEL AT END OF TIME STEP   17, STRESS PERIOD   2
  ------------------------------------------------------------------------------

     CUMULATIVE VOLUMES      L**3       RATES FOR THIS TIME STEP      L**3/T
     ------------------                 ------------------------

           IN:                                      IN:
           ---                                      ---
             STORAGE =       22411.0625               STORAGE =         311.6760
       CONSTANT HEAD =           0.0000         CONSTANT HEAD =           0.0000
               WELLS =           0.0000                 WELLS =           0.0000
       RIVER LEAKAGE =        3313.3777         RIVER LEAKAGE =         400.6966

            TOTAL IN =       25724.4395              TOTAL IN =         712.3726

          OUT:                                     OUT:
          ----                                     ----
             STORAGE =           0.0000               STORAGE =           0.0000
       CONSTANT HEAD =           0.0000         CONSTANT HEAD =           0.0000
               WELLS =           0.0000                 WELLS =           0.0000
       RIVER LEAKAGE =       25725.3633         RIVER LEAKAGE =         712.4681

           TOTAL OUT =       25725.3633             TOTAL OUT =         712.4681

            IN - OUT =          -0.9238              IN - OUT =      -9.5520E-02

 PERCENT DISCREPANCY =          -0.00     PERCENT DISCREPANCY =          -0.01






         TIME SUMMARY AT END OF TIME STEP   17 IN STRESS PERIOD    2
                    SECONDS     MINUTES      HOURS       DAYS        YEARS
                    -----------------------------------------------------------
   TIME STEP LENGTH  86400.      1440.0      24.000      1.0000     2.73785E-03
 STRESS PERIOD TIME 1.46880E+06  24480.      408.00      17.000     4.65435E-02
         TOTAL TIME 1.55520E+06  25920.      432.00      18.000     4.92813E-02
1

 SOLVING FOR HEAD 

 OUTPUT CONTROL FOR STRESS PERIOD    2   TIME STEP   18
    SAVE HEAD FOR ALL LAYERS
    SAVE DRAWDOWN FOR ALL LAYERS
    SAVE BUDGET
    PRINT HEAD FOR ALL LAYERS
    PRINT BUDGET
 UBDSV1 SAVING "         STORAGE" ON UNIT  53 AT TIME STEP 18, STRESS PERIOD   2
 UBDSV2 SAVING "   CONSTANT HEAD" ON UNIT  53 AT TIME STEP 18, STRESS PERIOD   2
 UBDSV1 SAVING "FLOW RIGHT FACE " ON UNIT  53 AT TIME STEP 18, STRESS PERIOD   2
 UBDSV1 SAVING "FLOW FRONT FACE " ON UNIT  53 AT TIME STEP 18, STRESS PERIOD   2
 UBDSV1 SAVING "FLOW LOWER FACE " ON UNIT  53 AT TIME STEP 18, STRESS PERIOD   2
1
              HEAD IN LAYER   1 AT END OF TIME STEP  18 IN STRESS PERIOD    2
  ---------------------------------------------------------------------------

            1           2           3           4           5           6           7           8           9          10
 ........................................................................................................................
   1    9.998       9.163       8.296       7.368       6.356       5.247       4.042       2.751       1.395      4.6350E-03
   2    9.998       9.163       8.296       7.368       6.356       5.247       4.042       2.751       1.395      4.6350E-03
   3    9.998       9.163       8.296       7.368       6.356       5.247       4.042       2.751       1.395      4.6350E-03
   4    9.998       9.163       8.296       7.368       6.356       5.247       4.042       2.751       1.395      4.6350E-03
   5    9.998       9.163       8.296       7.368       6.356       5.247       4.042       2.751       1.395      4.6350E-03
   6    9.998       9.163       8.296       7.368       6.356       5.247       4.042       2.751       1.395      4.6350E-03
   7    9.998       9.163       8.296       7.368       6.356       5.247       4.042       2.751       1.395      4.6350E-03
   8    9.998       9.163       8.296       7.368       6.356       5.247       4.042       2.751       1.395      4.6350E-03
   9    9.998       9.163       8.296       7.368       6.356       5.247       4.042       2.751       1.395      4.6350E-03
  10    9.998       9.163       8.296       7.368       6.356       5.247       4.042       2.751       1.395      4.6350E-03
1
              HEAD IN LAYER   2 AT END OF TIME STEP  18 IN STRESS PERIOD    2
  ---------------------------------------------------------------------------

            1           2           3           4           5           6           7           8           9          10
 ........................................................................................................................
   1    9.998       9.163       8.296       7.368       6.356       5.247       4.042       2.751       1.395      4.6350E-03
   2    9.998       9.163       8.296       7.368       6.356       5.247       4.042       2.751       1.395      4.6350E-03
   3    9.998       9.163       8.296       7.368       6.356       5.247       4.042       2.751       1.395      4.6350E-03
   4    9.998       9.163       8.296       7.368       6.356       5.247       4.042       2.751       1.395      4.6350E-03
   5    9.998       9.163       8.296       7.368       6.356       5.247       4.042       2.751       1.395      4.6350E-03
   6    9.998       9.163       8.296       7.368       6.356       5.247       4.042       2.751       1.395      4.6350E-03
   7    9.998       9.163       8.296       7.368       6.356       5.247       4.042       2.751       1.395      4.6350E-03
   8    9.998       9.163       8.296       7.368       6.356       5.247       4.042       2.751       1.395      4.6350E-03
   9    9.998       9.163       8.296       7.368       6.356       5.247       4.042       2.751       1.395      4.6350E-03
  10    9.998       9.163       8.296       7.368       6.356       5.247       4.042       2.751       1.395      4.6350E-03
1
              HEAD IN LAYER   3 AT END OF TIME STEP  18 IN STRESS PERIOD    2
  ---------------------------------------------------------------------------

            1           2           3           4           5           6           7           8           9          10
 ........................................................................................................................
   1    9.998       9.163       8.296       7.368       6.356       5.247       4.042       2.751       1.395      4.6350E-03
   2    9.998       9.163       8.296       7.368       6.356       5.247       4.042       2.751       1.395      4.6350E-03
   3    9.998       9.163       8.296       7.368       6.356       5.247       4.042       2.751       1.395      4.6350E-03
   4    9.998       9.163       8.296       7.368       6.356       5.247       4.042       2.751       1.395      4.6350E-03
   5    9.998       9.163       8.296       7.368       6.356       5.247       4.042       2.751       1.395      4.6350E-03
   6    9.998       9.163       8.296       7.368       6.356       5.247       4.042       2.751       1.395      4.6350E-03
   7    9.998       9.163       8.296       7.368       6.356       5.247       4.042       2.751       1.395      4.6350E-03
   8    9.998       9.163       8.296       7.368       6.356       5.247       4.042       2.751       1.395      4.6350E-03
   9    9.998       9.163       8.296       7.368       6.356       5.247       4.042       2.751       1.395      4.6350E-03
  10    9.998       9.163       8.296       7.368       6.356       5.247       4.042       2.751       1.395      4.6350E-03

 HEAD WILL BE SAVED ON UNIT   51 AT END OF TIME STEP   18, STRESS PERIOD    2

 DRAWDOWN WILL BE SAVED ON UNIT   52 AT END OF TIME STEP   18, STRESS PERIOD    2
1
  VOLUMETRIC BUDGET FOR ENTIRE MODEL AT END OF TIME STEP   18, STRESS PERIOD   2
  ------------------------------------------------------------------------------

     CUMULATIVE VOLUMES      L**3       RATES FOR THIS TIME STEP      L**3/T
     ------------------                 ------------------------

           IN:                                      IN:
           ---                                      ---
             STORAGE =       22689.2246               STORAGE =         278.1624
       CONSTANT HEAD =           0.0000         CONSTANT HEAD =           0.0000
               WELLS =           0.0000                 WELLS =           0.0000
       RIVER LEAKAGE =        3730.4353         RIVER LEAKAGE =         417.0576

            TOTAL IN =       26419.6602              TOTAL IN =         695.2201

          OUT:                                     OUT:
          ----                                     ----
             STORAGE =           0.0000               STORAGE =           0.0000
       CONSTANT HEAD =           0.0000         CONSTANT HEAD =           0.0000
               WELLS =           0.0000                 WELLS =           0.0000
       RIVER LEAKAGE =       26420.6133         RIVER LEAKAGE =         695.2496

           TOTAL OUT =       26420.6133             TOTAL OUT =         695.2496

            IN - OUT =          -0.9531              IN - OUT =      -2.9480E-02

 PERCENT DISCREPANCY =          -0.00     PERCENT DISCREPANCY =          -0.00






         TIME SUMMARY AT END OF TIME STEP   18 IN STRESS PERIOD    2
                    SECONDS     MINUTES      HOURS       DAYS        YEARS
                    -----------------------------------------------------------
   TIME STEP LENGTH  86400.      1440.0      24.000      1.0000     2.73785E-03
 STRESS PERIOD TIME 1.55520E+06  25920.      432.00      18.000     4.92813E-02
         TOTAL TIME 1.64160E+06  27360.      456.00      19.000     5.20192E-02
1

 SOLVING FOR HEAD 

 OUTPUT CONTROL FOR STRESS PERIOD    2   TIME STEP   19
    SAVE HEAD FOR ALL LAYERS
    SAVE DRAWDOWN FOR ALL LAYERS
    SAVE BUDGET
    PRINT HEAD FOR ALL LAYERS
    PRINT BUDGET
 UBDSV1 SAVING "         STORAGE" ON UNIT  53 AT TIME STEP 19, STRESS PERIOD   2
 UBDSV2 SAVING "   CONSTANT HEAD" ON UNIT  53 AT TIME STEP 19, STRESS PERIOD   2
 UBDSV1 SAVING "FLOW RIGHT FACE " ON UNIT  53 AT TIME STEP 19, STRESS PERIOD   2
 UBDSV1 SAVING "FLOW FRONT FACE " ON UNIT  53 AT TIME STEP 19, STRESS PERIOD   2
 UBDSV1 SAVING "FLOW LOWER FACE " ON UNIT  53 AT TIME STEP 19, STRESS PERIOD   2
1
              HEAD IN LAYER   1 AT END OF TIME STEP  19 IN STRESS PERIOD    2
  ---------------------------------------------------------------------------

            1           2           3           4           5           6           7           8           9          10
 ........................................................................................................................
   1    9.998       9.134       8.241       7.293       6.270       5.161       3.966       2.694       1.364      4.5332E-03
   2    9.998       9.134       8.241       7.293       6.270       5.161       3.966       2.694       1.364      4.5332E-03
   3    9.998       9.134       8.241       7.293       6.270       5.161       3.966       2.694       1.364      4.5332E-03
   4    9.998       9.134       8.241       7.293       6.270       5.161       3.966       2.694       1.364      4.5332E-03
   5    9.998       9.134       8.241       7.293       6.270       5.161       3.966       2.694       1.364      4.5332E-03
   6    9.998       9.134       8.241       7.293       6.270       5.161       3.966       2.694       1.364      4.5332E-03
   7    9.998       9.134       8.241       7.293       6.270       5.161       3.966       2.694       1.364      4.5332E-03
   8    9.998       9.134       8.241       7.293       6.270       5.161       3.966       2.694       1.364      4.5332E-03
   9    9.998       9.134       8.241       7.293       6.270       5.161       3.966       2.694       1.364      4.5332E-03
  10    9.998       9.134       8.241       7.293       6.270       5.161       3.966       2.694       1.364      4.5332E-03
1
              HEAD IN LAYER   2 AT END OF TIME STEP  19 IN STRESS PERIOD    2
  ---------------------------------------------------------------------------

            1           2           3           4           5           6           7           8           9          10
 ........................................................................................................................
   1    9.998       9.134       8.241       7.293       6.270       5.161       3.966       2.694       1.364      4.5332E-03
   2    9.998       9.134       8.241       7.293       6.270       5.161       3.966       2.694       1.364      4.5332E-03
   3    9.998       9.134       8.241       7.293       6.270       5.161       3.966       2.694       1.364      4.5332E-03
   4    9.998       9.134       8.241       7.293       6.270       5.161       3.966       2.694       1.364      4.5332E-03
   5    9.998       9.134       8.241       7.293       6.270       5.161       3.966       2.694       1.364      4.5332E-03
   6    9.998       9.134       8.241       7.293       6.270       5.161       3.966       2.694       1.364      4.5332E-03
   7    9.998       9.134       8.241       7.293       6.270       5.161       3.966       2.694       1.364      4.5332E-03
   8    9.998       9.134       8.241       7.293       6.270       5.161       3.966       2.694       1.364      4.5332E-03
   9    9.998       9.134       8.241       7.293       6.270       5.161       3.966       2.694       1.364      4.5332E-03
  10    9.998       9.134       8.241       7.293       6.270       5.161       3.966       2.694       1.364      4.5332E-03
1
              HEAD IN LAYER   3 AT END OF TIME STEP  19 IN STRESS PERIOD    2
  ---------------------------------------------------------------------------

            1           2           3           4           5           6           7           8           9          10
 ........................................................................................................................
   1    9.998       9.134       8.241       7.293       6.270       5.161       3.966       2.694       1.364      4.5332E-03
   2    9.998       9.134       8.241       7.293       6.270       5.161       3.966       2.694       1.364      4.5332E-03
   3    9.998       9.134       8.241       7.293       6.270       5.161       3.966       2.694       1.364      4.5332E-03
   4    9.998       9.134       8.241       7.293       6.270       5.161       3.966       2.694       1.364      4.5332E-03
   5    9.998       9.134       8.241       7.293       6.270       5.161       3.966       2.694       1.364      4.5332E-03
   6    9.998       9.134       8.241       7.293       6.270       5.161       3.966       2.694       1.364      4.5332E-03
   7    9.998       9.134       8.241       7.293       6.270       5.161       3.966       2.694       1.364      4.5332E-03
   8    9.998       9.134       8.241       7.293       6.270       5.161       3.966       2.694       1.364      4.5332E-03
   9    9.998       9.134       8.241       7.293       6.270       5.161       3.966       2.694       1.364      4.5332E-03
  10    9.998       9.134       8.241       7.293       6.270       5.161       3.966       2.694       1.364      4.5332E-03

 HEAD WILL BE SAVED ON UNIT   51 AT END OF TIME STEP   19, STRESS PERIOD    2

 DRAWDOWN WILL BE SAVED ON UNIT   52 AT END OF TIME STEP   19, STRESS PERIOD    2
1
  VOLUMETRIC BUDGET FOR ENTIRE MODEL AT END OF TIME STEP   19, STRESS PERIOD   2
  ------------------------------------------------------------------------------

     CUMULATIVE VOLUMES      L**3       RATES FOR THIS TIME STEP      L**3/T
     ------------------                 ------------------------

           IN:                                      IN:
           ---                                      ---
             STORAGE =       22937.4805               STORAGE =         248.2553
       CONSTANT HEAD =           0.0000         CONSTANT HEAD =           0.0000
               WELLS =           0.0000                 WELLS =           0.0000
       RIVER LEAKAGE =        4162.0864         RIVER LEAKAGE =         431.6512

            TOTAL IN =       27099.5664              TOTAL IN =         679.9066

          OUT:                                     OUT:
          ----                                     ----
             STORAGE =           0.0000               STORAGE =           0.0000
       CONSTANT HEAD =           0.0000         CONSTANT HEAD =           0.0000
               WELLS =           0.0000                 WELLS =           0.0000
       RIVER LEAKAGE =       27100.5957         RIVER LEAKAGE =         679.9818

           TOTAL OUT =       27100.5957             TOTAL OUT =         679.9818

            IN - OUT =          -1.0293              IN - OUT =      -7.5195E-02

 PERCENT DISCREPANCY =          -0.00     PERCENT DISCREPANCY =          -0.01






         TIME SUMMARY AT END OF TIME STEP   19 IN STRESS PERIOD    2
                    SECONDS     MINUTES      HOURS       DAYS        YEARS
                    -----------------------------------------------------------
   TIME STEP LENGTH  86400.      1440.0      24.000      1.0000     2.73785E-03
 STRESS PERIOD TIME 1.64160E+06  27360.      456.00      19.000     5.20192E-02
         TOTAL TIME 1.72800E+06  28800.      480.00      20.000     5.47570E-02
1

 SOLVING FOR HEAD 

 OUTPUT CONTROL FOR STRESS PERIOD    2   TIME STEP   20
    SAVE HEAD FOR ALL LAYERS
    SAVE DRAWDOWN FOR ALL LAYERS
    SAVE BUDGET
    PRINT HEAD FOR ALL LAYERS
    PRINT BUDGET
 UBDSV1 SAVING "         STORAGE" ON UNIT  53 AT TIME STEP 20, STRESS PERIOD   2
 UBDSV2 SAVING "   CONSTANT HEAD" ON UNIT  53 AT TIME STEP 20, STRESS PERIOD   2
 UBDSV1 SAVING "FLOW RIGHT FACE " ON UNIT  53 AT TIME STEP 20, STRESS PERIOD   2
 UBDSV1 SAVING "FLOW FRONT FACE " ON UNIT  53 AT TIME STEP 20, STRESS PERIOD   2
 UBDSV1 SAVING "FLOW LOWER FACE " ON UNIT  53 AT TIME STEP 20, STRESS PERIOD   2
1
              HEAD IN LAYER   1 AT END OF TIME STEP  20 IN STRESS PERIOD    2
  ---------------------------------------------------------------------------

            1           2           3           4           5           6           7           8           9          10
 ........................................................................................................................
   1    9.998       9.108       8.192       7.226       6.193       5.084       3.897       2.643       1.337      4.4428E-03
   2    9.998       9.108       8.192       7.226       6.193       5.084       3.897       2.643       1.337      4.4428E-03
   3    9.998       9.108       8.192       7.226       6.193       5.084       3.897       2.643       1.337      4.4428E-03
   4    9.998       9.108       8.192       7.226       6.193       5.084       3.897       2.643       1.337      4.4428E-03
   5    9.998       9.108       8.192       7.226       6.193       5.084       3.897       2.643       1.337      4.4428E-03
   6    9.998       9.108       8.192       7.226       6.193       5.084       3.897       2.643       1.337      4.4428E-03
   7    9.998       9.108       8.192       7.226       6.193       5.084       3.897       2.643       1.337      4.4428E-03
   8    9.998       9.108       8.192       7.226       6.193       5.084       3.897       2.643       1.337      4.4428E-03
   9    9.998       9.108       8.192       7.226       6.193       5.084       3.897       2.643       1.337      4.4428E-03
  10    9.998       9.108       8.192       7.226       6.193       5.084       3.897       2.643       1.337      4.4428E-03
1
              HEAD IN LAYER   2 AT END OF TIME STEP  20 IN STRESS PERIOD    2
  ---------------------------------------------------------------------------

            1           2           3           4           5           6           7           8           9          10
 ........................................................................................................................
   1    9.998       9.108       8.192       7.226       6.193       5.084       3.897       2.643       1.337      4.4428E-03
   2    9.998       9.108       8.192       7.226       6.193       5.084       3.897       2.643       1.337      4.4428E-03
   3    9.998       9.108       8.192       7.226       6.193       5.084       3.897       2.643       1.337      4.4428E-03
   4    9.998       9.108       8.192       7.226       6.193       5.084       3.897       2.643       1.337      4.4428E-03
   5    9.998       9.108       8.192       7.226       6.193       5.084       3.897       2.643       1.337      4.4428E-03
   6    9.998       9.108       8.192       7.226       6.193       5.084       3.897       2.643       1.337      4.4428E-03
   7    9.998       9.108       8.192       7.226       6.193       5.084       3.897       2.643       1.337      4.4428E-03
   8    9.998       9.108       8.192       7.226       6.193       5.084       3.897       2.643       1.337      4.4428E-03
   9    9.998       9.108       8.192       7.226       6.193       5.084       3.897       2.643       1.337      4.4428E-03
  10    9.998       9.108       8.192       7.226       6.193       5.084       3.897       2.643       1.337      4.4428E-03
1
              HEAD IN LAYER   3 AT END OF TIME STEP  20 IN STRESS PERIOD    2
  ---------------------------------------------------------------------------

            1           2           3           4           5           6           7           8           9          10
 ........................................................................................................................
   1    9.998       9.108       8.192       7.226       6.193       5.084       3.897       2.643       1.337      4.4428E-03
   2    9.998       9.108       8.192       7.226       6.193       5.084       3.897       2.643       1.337      4.4428E-03
   3    9.998       9.108       8.192       7.226       6.193       5.084       3.897       2.643       1.337      4.4428E-03
   4    9.998       9.108       8.192       7.226       6.193       5.084       3.897       2.643       1.337      4.4428E-03
   5    9.998       9.108       8.192       7.226       6.193       5.084       3.897       2.643       1.337      4.4428E-03
   6    9.998       9.108       8.192       7.226       6.193       5.084       3.897       2.643       1.337      4.4428E-03
   7    9.998       9.108       8.192       7.226       6.193       5.084       3.897       2.643       1.337      4.4428E-03
   8    9.998       9.108       8.192       7.226       6.193       5.084       3.897       2.643       1.337      4.4428E-03
   9    9.998       9.108       8.192       7.226       6.193       5.084       3.897       2.643       1.337      4.4428E-03
  10    9.998       9.108       8.192       7.226       6.193       5.084       3.897       2.643       1.337      4.4428E-03

 HEAD WILL BE SAVED ON UNIT   51 AT END OF TIME STEP   20, STRESS PERIOD    2

 DRAWDOWN WILL BE SAVED ON UNIT   52 AT END OF TIME STEP   20, STRESS PERIOD    2
1
  VOLUMETRIC BUDGET FOR ENTIRE MODEL AT END OF TIME STEP   20, STRESS PERIOD   2
  ------------------------------------------------------------------------------

     CUMULATIVE VOLUMES      L**3       RATES FOR THIS TIME STEP      L**3/T
     ------------------                 ------------------------

           IN:                                      IN:
           ---                                      ---
             STORAGE =       23159.0469               STORAGE =         221.5654
       CONSTANT HEAD =           0.0000         CONSTANT HEAD =           0.0000
               WELLS =           0.0000                 WELLS =           0.0000
       RIVER LEAKAGE =        4606.9443         RIVER LEAKAGE =         444.8578

            TOTAL IN =       27765.9922              TOTAL IN =         666.4232

          OUT:                                     OUT:
          ----                                     ----
             STORAGE =           0.0000               STORAGE =           0.0000
       CONSTANT HEAD =           0.0000         CONSTANT HEAD =           0.0000
               WELLS =           0.0000                 WELLS =           0.0000
       RIVER LEAKAGE =       27767.0176         RIVER LEAKAGE =         666.4219

           TOTAL OUT =       27767.0176             TOTAL OUT =         666.4219

            IN - OUT =          -1.0254              IN - OUT =       1.3428E-03

 PERCENT DISCREPANCY =          -0.00     PERCENT DISCREPANCY =           0.00






         TIME SUMMARY AT END OF TIME STEP   20 IN STRESS PERIOD    2
                    SECONDS     MINUTES      HOURS       DAYS        YEARS
                    -----------------------------------------------------------
   TIME STEP LENGTH  86400.      1440.0      24.000      1.0000     2.73785E-03
 STRESS PERIOD TIME 1.72800E+06  28800.      480.00      20.000     5.47570E-02
         TOTAL TIME 1.81440E+06  30240.      504.00      21.000     5.74949E-02
1

 SOLVING FOR HEAD 

 OUTPUT CONTROL FOR STRESS PERIOD    2   TIME STEP   21
    SAVE HEAD FOR ALL LAYERS
    SAVE DRAWDOWN FOR ALL LAYERS
    SAVE BUDGET
    PRINT HEAD FOR ALL LAYERS
    PRINT BUDGET
 UBDSV1 SAVING "         STORAGE" ON UNIT  53 AT TIME STEP 21, STRESS PERIOD   2
 UBDSV2 SAVING "   CONSTANT HEAD" ON UNIT  53 AT TIME STEP 21, STRESS PERIOD   2
 UBDSV1 SAVING "FLOW RIGHT FACE " ON UNIT  53 AT TIME STEP 21, STRESS PERIOD   2
 UBDSV1 SAVING "FLOW FRONT FACE " ON UNIT  53 AT TIME STEP 21, STRESS PERIOD   2
 UBDSV1 SAVING "FLOW LOWER FACE " ON UNIT  53 AT TIME STEP 21, STRESS PERIOD   2
1
              HEAD IN LAYER   1 AT END OF TIME STEP  21 IN STRESS PERIOD    2
  ---------------------------------------------------------------------------

            1           2           3           4           5           6           7           8           9          10
 ........................................................................................................................
   1    9.997       9.084       8.147       7.166       6.125       5.015       3.837       2.597       1.313      4.3624E-03
   2    9.997       9.084       8.147       7.166       6.125       5.015       3.837       2.597       1.313      4.3624E-03
   3    9.997       9.084       8.147       7.166       6.125       5.015       3.837       2.597       1.313      4.3624E-03
   4    9.997       9.084       8.147       7.166       6.125       5.015       3.837       2.597       1.313      4.3624E-03
   5    9.997       9.084       8.147       7.166       6.125       5.015       3.837       2.597       1.313      4.3624E-03
   6    9.997       9.084       8.147       7.166       6.125       5.015       3.837       2.597       1.313      4.3624E-03
   7    9.997       9.084       8.147       7.166       6.125       5.015       3.837       2.597       1.313      4.3624E-03
   8    9.997       9.084       8.147       7.166       6.125       5.015       3.837       2.597       1.313      4.3624E-03
   9    9.997       9.084       8.147       7.166       6.125       5.015       3.837       2.597       1.313      4.3624E-03
  10    9.997       9.084       8.147       7.166       6.125       5.015       3.837       2.597       1.313      4.3624E-03
1
              HEAD IN LAYER   2 AT END OF TIME STEP  21 IN STRESS PERIOD    2
  ---------------------------------------------------------------------------

            1           2           3           4           5           6           7           8           9          10
 ........................................................................................................................
   1    9.997       9.084       8.147       7.166       6.125       5.015       3.837       2.597       1.313      4.3624E-03
   2    9.997       9.084       8.147       7.166       6.125       5.015       3.837       2.597       1.313      4.3624E-03
   3    9.997       9.084       8.147       7.166       6.125       5.015       3.837       2.597       1.313      4.3624E-03
   4    9.997       9.084       8.147       7.166       6.125       5.015       3.837       2.597       1.313      4.3624E-03
   5    9.997       9.084       8.147       7.166       6.125       5.015       3.837       2.597       1.313      4.3624E-03
   6    9.997       9.084       8.147       7.166       6.125       5.015       3.837       2.597       1.313      4.3624E-03
   7    9.997       9.084       8.147       7.166       6.125       5.015       3.837       2.597       1.313      4.3624E-03
   8    9.997       9.084       8.147       7.166       6.125       5.015       3.837       2.597       1.313      4.3624E-03
   9    9.997       9.084       8.147       7.166       6.125       5.015       3.837       2.597       1.313      4.3624E-03
  10    9.997       9.084       8.147       7.166       6.125       5.015       3.837       2.597       1.313      4.3624E-03
1
              HEAD IN LAYER   3 AT END OF TIME STEP  21 IN STRESS PERIOD    2
  ---------------------------------------------------------------------------

            1           2           3           4           5           6           7           8           9          10
 ........................................................................................................................
   1    9.997       9.084       8.147       7.166       6.125       5.015       3.837       2.597       1.313      4.3624E-03
   2    9.997       9.084       8.147       7.166       6.125       5.015       3.837       2.597       1.313      4.3624E-03
   3    9.997       9.084       8.147       7.166       6.125       5.015       3.837       2.597       1.313      4.3624E-03
   4    9.997       9.084       8.147       7.166       6.125       5.015       3.837       2.597       1.313      4.3624E-03
   5    9.997       9.084       8.147       7.166       6.125       5.015       3.837       2.597       1.313      4.3624E-03
   6    9.997       9.084       8.147       7.166       6.125       5.015       3.837       2.597       1.313      4.3624E-03
   7    9.997       9.084       8.147       7.166       6.125       5.015       3.837       2.597       1.313      4.3624E-03
   8    9.997       9.084       8.147       7.166       6.125       5.015       3.837       2.597       1.313      4.3624E-03
   9    9.997       9.084       8.147       7.166       6.125       5.015       3.837       2.597       1.313      4.3624E-03
  10    9.997       9.084       8.147       7.166       6.125       5.015       3.837       2.597       1.313      4.3624E-03

 HEAD WILL BE SAVED ON UNIT   51 AT END OF TIME STEP   21, STRESS PERIOD    2

 DRAWDOWN WILL BE SAVED ON UNIT   52 AT END OF TIME STEP   21, STRESS PERIOD    2
1
  VOLUMETRIC BUDGET FOR ENTIRE MODEL AT END OF TIME STEP   21, STRESS PERIOD   2
  ------------------------------------------------------------------------------

     CUMULATIVE VOLUMES      L**3       RATES FOR THIS TIME STEP      L**3/T
     ------------------                 ------------------------

           IN:                                      IN:
           ---                                      ---
             STORAGE =       23356.7930               STORAGE =         197.7457
       CONSTANT HEAD =           0.0000         CONSTANT HEAD =           0.0000
               WELLS =           0.0000                 WELLS =           0.0000
       RIVER LEAKAGE =        5063.5298         RIVER LEAKAGE =         456.5855

            TOTAL IN =       28420.3223              TOTAL IN =         654.3312

          OUT:                                     OUT:
          ----                                     ----
             STORAGE =           0.0000               STORAGE =           0.0000
       CONSTANT HEAD =           0.0000         CONSTANT HEAD =           0.0000
               WELLS =           0.0000                 WELLS =           0.0000
       RIVER LEAKAGE =       28421.3828         RIVER LEAKAGE =         654.3654

           TOTAL OUT =       28421.3828             TOTAL OUT =         654.3654

            IN - OUT =          -1.0605              IN - OUT =      -3.4180E-02

 PERCENT DISCREPANCY =          -0.00     PERCENT DISCREPANCY =          -0.01






         TIME SUMMARY AT END OF TIME STEP   21 IN STRESS PERIOD    2
                    SECONDS     MINUTES      HOURS       DAYS        YEARS
                    -----------------------------------------------------------
   TIME STEP LENGTH  86400.      1440.0      24.000      1.0000     2.73785E-03
 STRESS PERIOD TIME 1.81440E+06  30240.      504.00      21.000     5.74949E-02
         TOTAL TIME 1.90080E+06  31680.      528.00      22.000     6.02327E-02
1

 SOLVING FOR HEAD 

 OUTPUT CONTROL FOR STRESS PERIOD    2   TIME STEP   22
    SAVE HEAD FOR ALL LAYERS
    SAVE DRAWDOWN FOR ALL LAYERS
    SAVE BUDGET
    PRINT HEAD FOR ALL LAYERS
    PRINT BUDGET
 UBDSV1 SAVING "         STORAGE" ON UNIT  53 AT TIME STEP 22, STRESS PERIOD   2
 UBDSV2 SAVING "   CONSTANT HEAD" ON UNIT  53 AT TIME STEP 22, STRESS PERIOD   2
 UBDSV1 SAVING "FLOW RIGHT FACE " ON UNIT  53 AT TIME STEP 22, STRESS PERIOD   2
 UBDSV1 SAVING "FLOW FRONT FACE " ON UNIT  53 AT TIME STEP 22, STRESS PERIOD   2
 UBDSV1 SAVING "FLOW LOWER FACE " ON UNIT  53 AT TIME STEP 22, STRESS PERIOD   2
1
              HEAD IN LAYER   1 AT END OF TIME STEP  22 IN STRESS PERIOD    2
  ---------------------------------------------------------------------------

            1           2           3           4           5           6           7           8           9          10
 ........................................................................................................................
   1    9.997       9.063       8.108       7.112       6.064       4.954       3.783       2.557       1.291      4.2909E-03
   2    9.997       9.063       8.108       7.112       6.064       4.954       3.783       2.557       1.291      4.2909E-03
   3    9.997       9.063       8.108       7.112       6.064       4.954       3.783       2.557       1.291      4.2909E-03
   4    9.997       9.063       8.108       7.112       6.064       4.954       3.783       2.557       1.291      4.2909E-03
   5    9.997       9.063       8.108       7.112       6.064       4.954       3.783       2.557       1.291      4.2909E-03
   6    9.997       9.063       8.108       7.112       6.064       4.954       3.783       2.557       1.291      4.2909E-03
   7    9.997       9.063       8.108       7.112       6.064       4.954       3.783       2.557       1.291      4.2909E-03
   8    9.997       9.063       8.108       7.112       6.064       4.954       3.783       2.557       1.291      4.2909E-03
   9    9.997       9.063       8.108       7.112       6.064       4.954       3.783       2.557       1.291      4.2909E-03
  10    9.997       9.063       8.108       7.112       6.064       4.954       3.783       2.557       1.291      4.2909E-03
1
              HEAD IN LAYER   2 AT END OF TIME STEP  22 IN STRESS PERIOD    2
  ---------------------------------------------------------------------------

            1           2           3           4           5           6           7           8           9          10
 ........................................................................................................................
   1    9.997       9.063       8.108       7.112       6.064       4.954       3.783       2.557       1.291      4.2909E-03
   2    9.997       9.063       8.108       7.112       6.064       4.954       3.783       2.557       1.291      4.2909E-03
   3    9.997       9.063       8.108       7.112       6.064       4.954       3.783       2.557       1.291      4.2909E-03
   4    9.997       9.063       8.108       7.112       6.064       4.954       3.783       2.557       1.291      4.2909E-03
   5    9.997       9.063       8.108       7.112       6.064       4.954       3.783       2.557       1.291      4.2909E-03
   6    9.997       9.063       8.108       7.112       6.064       4.954       3.783       2.557       1.291      4.2909E-03
   7    9.997       9.063       8.108       7.112       6.064       4.954       3.783       2.557       1.291      4.2909E-03
   8    9.997       9.063       8.108       7.112       6.064       4.954       3.783       2.557       1.291      4.2909E-03
   9    9.997       9.063       8.108       7.112       6.064       4.954       3.783       2.557       1.291      4.2909E-03
  10    9.997       9.063       8.108       7.112       6.064       4.954       3.783       2.557       1.291      4.2909E-03
1
              HEAD IN LAYER   3 AT END OF TIME STEP  22 IN STRESS PERIOD    2
  ---------------------------------------------------------------------------

            1           2           3           4           5           6           7           8           9          10
 ........................................................................................................................
   1    9.997       9.063       8.108       7.112       6.064       4.954       3.783       2.557       1.291      4.2909E-03
   2    9.997       9.063       8.108       7.112       6.064       4.954       3.783       2.557       1.291      4.2909E-03
   3    9.997       9.063       8.108       7.112       6.064       4.954       3.783       2.557       1.291      4.2909E-03
   4    9.997       9.063       8.108       7.112       6.064       4.954       3.783       2.557       1.291      4.2909E-03
   5    9.997       9.063       8.108       7.112       6.064       4.954       3.783       2.557       1.291      4.2909E-03
   6    9.997       9.063       8.108       7.112       6.064       4.954       3.783       2.557       1.291      4.2909E-03
   7    9.997       9.063       8.108       7.112       6.064       4.954       3.783       2.557       1.291      4.2909E-03
   8    9.997       9.063       8.108       7.112       6.064       4.954       3.783       2.557       1.291      4.2909E-03
   9    9.997       9.063       8.108       7.112       6.064       4.954       3.783       2.557       1.291      4.2909E-03
  10    9.997       9.063       8.108       7.112       6.064       4.954       3.783       2.557       1.291      4.2909E-03

 HEAD WILL BE SAVED ON UNIT   51 AT END OF TIME STEP   22, STRESS PERIOD    2

 DRAWDOWN WILL BE SAVED ON UNIT   52 AT END OF TIME STEP   22, STRESS PERIOD    2
1
  VOLUMETRIC BUDGET FOR ENTIRE MODEL AT END OF TIME STEP   22, STRESS PERIOD   2
  ------------------------------------------------------------------------------

     CUMULATIVE VOLUMES      L**3       RATES FOR THIS TIME STEP      L**3/T
     ------------------                 ------------------------

           IN:                                      IN:
           ---                                      ---
             STORAGE =       23533.2793               STORAGE =         176.4858
       CONSTANT HEAD =           0.0000         CONSTANT HEAD =           0.0000
               WELLS =           0.0000                 WELLS =           0.0000
       RIVER LEAKAGE =        5530.6128         RIVER LEAKAGE =         467.0828

            TOTAL IN =       29063.8926              TOTAL IN =         643.5686

          OUT:                                     OUT:
          ----                                     ----
             STORAGE =           0.0000               STORAGE =           0.0000
       CONSTANT HEAD =           0.0000         CONSTANT HEAD =           0.0000
               WELLS =           0.0000                 WELLS =           0.0000
       RIVER LEAKAGE =       29065.0195         RIVER LEAKAGE =         643.6363

           TOTAL OUT =       29065.0195             TOTAL OUT =         643.6363

            IN - OUT =          -1.1270              IN - OUT =      -6.7688E-02

 PERCENT DISCREPANCY =          -0.00     PERCENT DISCREPANCY =          -0.01






         TIME SUMMARY AT END OF TIME STEP   22 IN STRESS PERIOD    2
                    SECONDS     MINUTES      HOURS       DAYS        YEARS
                    -----------------------------------------------------------
   TIME STEP LENGTH  86400.      1440.0      24.000      1.0000     2.73785E-03
 STRESS PERIOD TIME 1.90080E+06  31680.      528.00      22.000     6.02327E-02
         TOTAL TIME 1.98720E+06  33120.      552.00      23.000     6.29706E-02
1

 SOLVING FOR HEAD 

 OUTPUT CONTROL FOR STRESS PERIOD    2   TIME STEP   23
    SAVE HEAD FOR ALL LAYERS
    SAVE DRAWDOWN FOR ALL LAYERS
    SAVE BUDGET
    PRINT HEAD FOR ALL LAYERS
    PRINT BUDGET
 UBDSV1 SAVING "         STORAGE" ON UNIT  53 AT TIME STEP 23, STRESS PERIOD   2
 UBDSV2 SAVING "   CONSTANT HEAD" ON UNIT  53 AT TIME STEP 23, STRESS PERIOD   2
 UBDSV1 SAVING "FLOW RIGHT FACE " ON UNIT  53 AT TIME STEP 23, STRESS PERIOD   2
 UBDSV1 SAVING "FLOW FRONT FACE " ON UNIT  53 AT TIME STEP 23, STRESS PERIOD   2
 UBDSV1 SAVING "FLOW LOWER FACE " ON UNIT  53 AT TIME STEP 23, STRESS PERIOD   2
1
              HEAD IN LAYER   1 AT END OF TIME STEP  23 IN STRESS PERIOD    2
  ---------------------------------------------------------------------------

            1           2           3           4           5           6           7           8           9          10
 ........................................................................................................................
   1    9.997       9.044       8.072       7.065       6.009       4.899       3.734       2.521       1.272      4.2272E-03
   2    9.997       9.044       8.072       7.065       6.009       4.899       3.734       2.521       1.272      4.2272E-03
   3    9.997       9.044       8.072       7.065       6.009       4.899       3.734       2.521       1.272      4.2272E-03
   4    9.997       9.044       8.072       7.065       6.009       4.899       3.734       2.521       1.272      4.2272E-03
   5    9.997       9.044       8.072       7.065       6.009       4.899       3.734       2.521       1.272      4.2272E-03
   6    9.997       9.044       8.072       7.065       6.009       4.899       3.734       2.521       1.272      4.2272E-03
   7    9.997       9.044       8.072       7.065       6.009       4.899       3.734       2.521       1.272      4.2272E-03
   8    9.997       9.044       8.072       7.065       6.009       4.899       3.734       2.521       1.272      4.2272E-03
   9    9.997       9.044       8.072       7.065       6.009       4.899       3.734       2.521       1.272      4.2272E-03
  10    9.997       9.044       8.072       7.065       6.009       4.899       3.734       2.521       1.272      4.2272E-03
1
              HEAD IN LAYER   2 AT END OF TIME STEP  23 IN STRESS PERIOD    2
  ---------------------------------------------------------------------------

            1           2           3           4           5           6           7           8           9          10
 ........................................................................................................................
   1    9.997       9.044       8.072       7.065       6.009       4.899       3.734       2.521       1.272      4.2272E-03
   2    9.997       9.044       8.072       7.065       6.009       4.899       3.734       2.521       1.272      4.2272E-03
   3    9.997       9.044       8.072       7.065       6.009       4.899       3.734       2.521       1.272      4.2272E-03
   4    9.997       9.044       8.072       7.065       6.009       4.899       3.734       2.521       1.272      4.2272E-03
   5    9.997       9.044       8.072       7.065       6.009       4.899       3.734       2.521       1.272      4.2272E-03
   6    9.997       9.044       8.072       7.065       6.009       4.899       3.734       2.521       1.272      4.2272E-03
   7    9.997       9.044       8.072       7.065       6.009       4.899       3.734       2.521       1.272      4.2272E-03
   8    9.997       9.044       8.072       7.065       6.009       4.899       3.734       2.521       1.272      4.2272E-03
   9    9.997       9.044       8.072       7.065       6.009       4.899       3.734       2.521       1.272      4.2272E-03
  10    9.997       9.044       8.072       7.065       6.009       4.899       3.734       2.521       1.272      4.2272E-03
1
              HEAD IN LAYER   3 AT END OF TIME STEP  23 IN STRESS PERIOD    2
  ---------------------------------------------------------------------------

            1           2           3           4           5           6           7           8           9          10
 ........................................................................................................................
   1    9.997       9.044       8.072       7.065       6.009       4.899       3.734       2.521       1.272      4.2272E-03
   2    9.997       9.044       8.072       7.065       6.009       4.899       3.734       2.521       1.272      4.2272E-03
   3    9.997       9.044       8.072       7.065       6.009       4.899       3.734       2.521       1.272      4.2272E-03
   4    9.997       9.044       8.072       7.065       6.009       4.899       3.734       2.521       1.272      4.2272E-03
   5    9.997       9.044       8.072       7.065       6.009       4.899       3.734       2.521       1.272      4.2272E-03
   6    9.997       9.044       8.072       7.065       6.009       4.899       3.734       2.521       1.272      4.2272E-03
   7    9.997       9.044       8.072       7.065       6.009       4.899       3.734       2.521       1.272      4.2272E-03
   8    9.997       9.044       8.072       7.065       6.009       4.899       3.734       2.521       1.272      4.2272E-03
   9    9.997       9.044       8.072       7.065       6.009       4.899       3.734       2.521       1.272      4.2272E-03
  10    9.997       9.044       8.072       7.065       6.009       4.899       3.734       2.521       1.272      4.2272E-03

 HEAD WILL BE SAVED ON UNIT   51 AT END OF TIME STEP   23, STRESS PERIOD    2

 DRAWDOWN WILL BE SAVED ON UNIT   52 AT END OF TIME STEP   23, STRESS PERIOD    2
1
  VOLUMETRIC BUDGET FOR ENTIRE MODEL AT END OF TIME STEP   23, STRESS PERIOD   2
  ------------------------------------------------------------------------------

     CUMULATIVE VOLUMES      L**3       RATES FOR THIS TIME STEP      L**3/T
     ------------------                 ------------------------

           IN:                                      IN:
           ---                                      ---
             STORAGE =       23690.7910               STORAGE =         157.5121
       CONSTANT HEAD =           0.0000         CONSTANT HEAD =           0.0000
               WELLS =           0.0000                 WELLS =           0.0000
       RIVER LEAKAGE =        6007.0854         RIVER LEAKAGE =         476.4727

            TOTAL IN =       29697.8770              TOTAL IN =         633.9848

          OUT:                                     OUT:
          ----                                     ----
             STORAGE =           0.0000               STORAGE =           0.0000
       CONSTANT HEAD =           0.0000         CONSTANT HEAD =           0.0000
               WELLS =           0.0000                 WELLS =           0.0000
       RIVER LEAKAGE =       29699.1016         RIVER LEAKAGE =         634.0811

           TOTAL OUT =       29699.1016             TOTAL OUT =         634.0811

            IN - OUT =          -1.2246              IN - OUT =      -9.6313E-02

 PERCENT DISCREPANCY =          -0.00     PERCENT DISCREPANCY =          -0.02






         TIME SUMMARY AT END OF TIME STEP   23 IN STRESS PERIOD    2
                    SECONDS     MINUTES      HOURS       DAYS        YEARS
                    -----------------------------------------------------------
   TIME STEP LENGTH  86400.      1440.0      24.000      1.0000     2.73785E-03
 STRESS PERIOD TIME 1.98720E+06  33120.      552.00      23.000     6.29706E-02
         TOTAL TIME 2.07360E+06  34560.      576.00      24.000     6.57084E-02
1

 SOLVING FOR HEAD 

 OUTPUT CONTROL FOR STRESS PERIOD    2   TIME STEP   24
    SAVE HEAD FOR ALL LAYERS
    SAVE DRAWDOWN FOR ALL LAYERS
    SAVE BUDGET
    PRINT HEAD FOR ALL LAYERS
    PRINT BUDGET
 UBDSV1 SAVING "         STORAGE" ON UNIT  53 AT TIME STEP 24, STRESS PERIOD   2
 UBDSV2 SAVING "   CONSTANT HEAD" ON UNIT  53 AT TIME STEP 24, STRESS PERIOD   2
 UBDSV1 SAVING "FLOW RIGHT FACE " ON UNIT  53 AT TIME STEP 24, STRESS PERIOD   2
 UBDSV1 SAVING "FLOW FRONT FACE " ON UNIT  53 AT TIME STEP 24, STRESS PERIOD   2
 UBDSV1 SAVING "FLOW LOWER FACE " ON UNIT  53 AT TIME STEP 24, STRESS PERIOD   2
1
              HEAD IN LAYER   1 AT END OF TIME STEP  24 IN STRESS PERIOD    2
  ---------------------------------------------------------------------------

            1           2           3           4           5           6           7           8           9          10
 ........................................................................................................................
   1    9.997       9.027       8.040       7.022       5.960       4.850       3.691       2.489       1.255      4.1705E-03
   2    9.997       9.027       8.040       7.022       5.960       4.850       3.691       2.489       1.255      4.1705E-03
   3    9.997       9.027       8.040       7.022       5.960       4.850       3.691       2.489       1.255      4.1705E-03
   4    9.997       9.027       8.040       7.022       5.960       4.850       3.691       2.489       1.255      4.1705E-03
   5    9.997       9.027       8.040       7.022       5.960       4.850       3.691       2.489       1.255      4.1705E-03
   6    9.997       9.027       8.040       7.022       5.960       4.850       3.691       2.489       1.255      4.1705E-03
   7    9.997       9.027       8.040       7.022       5.960       4.850       3.691       2.489       1.255      4.1705E-03
   8    9.997       9.027       8.040       7.022       5.960       4.850       3.691       2.489       1.255      4.1705E-03
   9    9.997       9.027       8.040       7.022       5.960       4.850       3.691       2.489       1.255      4.1705E-03
  10    9.997       9.027       8.040       7.022       5.960       4.850       3.691       2.489       1.255      4.1705E-03
1
              HEAD IN LAYER   2 AT END OF TIME STEP  24 IN STRESS PERIOD    2
  ---------------------------------------------------------------------------

            1           2           3           4           5           6           7           8           9          10
 ........................................................................................................................
   1    9.997       9.027       8.040       7.022       5.960       4.850       3.691       2.489       1.255      4.1705E-03
   2    9.997       9.027       8.040       7.022       5.960       4.850       3.691       2.489       1.255      4.1705E-03
   3    9.997       9.027       8.040       7.022       5.960       4.850       3.691       2.489       1.255      4.1705E-03
   4    9.997       9.027       8.040       7.022       5.960       4.850       3.691       2.489       1.255      4.1705E-03
   5    9.997       9.027       8.040       7.022       5.960       4.850       3.691       2.489       1.255      4.1705E-03
   6    9.997       9.027       8.040       7.022       5.960       4.850       3.691       2.489       1.255      4.1705E-03
   7    9.997       9.027       8.040       7.022       5.960       4.850       3.691       2.489       1.255      4.1705E-03
   8    9.997       9.027       8.040       7.022       5.960       4.850       3.691       2.489       1.255      4.1705E-03
   9    9.997       9.027       8.040       7.022       5.960       4.850       3.691       2.489       1.255      4.1705E-03
  10    9.997       9.027       8.040       7.022       5.960       4.850       3.691       2.489       1.255      4.1705E-03
1
              HEAD IN LAYER   3 AT END OF TIME STEP  24 IN STRESS PERIOD    2
  ---------------------------------------------------------------------------

            1           2           3           4           5           6           7           8           9          10
 ........................................................................................................................
   1    9.997       9.027       8.040       7.022       5.960       4.850       3.691       2.489       1.255      4.1705E-03
   2    9.997       9.027       8.040       7.022       5.960       4.850       3.691       2.489       1.255      4.1705E-03
   3    9.997       9.027       8.040       7.022       5.960       4.850       3.691       2.489       1.255      4.1705E-03
   4    9.997       9.027       8.040       7.022       5.960       4.850       3.691       2.489       1.255      4.1705E-03
   5    9.997       9.027       8.040       7.022       5.960       4.850       3.691       2.489       1.255      4.1705E-03
   6    9.997       9.027       8.040       7.022       5.960       4.850       3.691       2.489       1.255      4.1705E-03
   7    9.997       9.027       8.040       7.022       5.960       4.850       3.691       2.489       1.255      4.1705E-03
   8    9.997       9.027       8.040       7.022       5.960       4.850       3.691       2.489       1.255      4.1705E-03
   9    9.997       9.027       8.040       7.022       5.960       4.850       3.691       2.489       1.255      4.1705E-03
  10    9.997       9.027       8.040       7.022       5.960       4.850       3.691       2.489       1.255      4.1705E-03

 HEAD WILL BE SAVED ON UNIT   51 AT END OF TIME STEP   24, STRESS PERIOD    2

 DRAWDOWN WILL BE SAVED ON UNIT   52 AT END OF TIME STEP   24, STRESS PERIOD    2
1
  VOLUMETRIC BUDGET FOR ENTIRE MODEL AT END OF TIME STEP   24, STRESS PERIOD   2
  ------------------------------------------------------------------------------

     CUMULATIVE VOLUMES      L**3       RATES FOR THIS TIME STEP      L**3/T
     ------------------                 ------------------------

           IN:                                      IN:
           ---                                      ---
             STORAGE =       23831.3691               STORAGE =         140.5785
       CONSTANT HEAD =           0.0000         CONSTANT HEAD =           0.0000
               WELLS =           0.0000                 WELLS =           0.0000
       RIVER LEAKAGE =        6492.0688         RIVER LEAKAGE =         484.9836

            TOTAL IN =       30323.4375              TOTAL IN =         625.5621

          OUT:                                     OUT:
          ----                                     ----
             STORAGE =           0.0000               STORAGE =           0.0000
       CONSTANT HEAD =           0.0000         CONSTANT HEAD =           0.0000
               WELLS =           0.0000                 WELLS =           0.0000
       RIVER LEAKAGE =       30324.6699         RIVER LEAKAGE =         625.5681

           TOTAL OUT =       30324.6699             TOTAL OUT =         625.5681

            IN - OUT =          -1.2324              IN - OUT =      -5.9814E-03

 PERCENT DISCREPANCY =          -0.00     PERCENT DISCREPANCY =          -0.00






         TIME SUMMARY AT END OF TIME STEP   24 IN STRESS PERIOD    2
                    SECONDS     MINUTES      HOURS       DAYS        YEARS
                    -----------------------------------------------------------
   TIME STEP LENGTH  86400.      1440.0      24.000      1.0000     2.73785E-03
 STRESS PERIOD TIME 2.07360E+06  34560.      576.00      24.000     6.57084E-02
         TOTAL TIME 2.16000E+06  36000.      600.00      25.000     6.84463E-02
1

 SOLVING FOR HEAD 

 OUTPUT CONTROL FOR STRESS PERIOD    2   TIME STEP   25
    SAVE HEAD FOR ALL LAYERS
    SAVE DRAWDOWN FOR ALL LAYERS
    SAVE BUDGET
    PRINT HEAD FOR ALL LAYERS
    PRINT BUDGET
 UBDSV1 SAVING "         STORAGE" ON UNIT  53 AT TIME STEP 25, STRESS PERIOD   2
 UBDSV2 SAVING "   CONSTANT HEAD" ON UNIT  53 AT TIME STEP 25, STRESS PERIOD   2
 UBDSV1 SAVING "FLOW RIGHT FACE " ON UNIT  53 AT TIME STEP 25, STRESS PERIOD   2
 UBDSV1 SAVING "FLOW FRONT FACE " ON UNIT  53 AT TIME STEP 25, STRESS PERIOD   2
 UBDSV1 SAVING "FLOW LOWER FACE " ON UNIT  53 AT TIME STEP 25, STRESS PERIOD   2
1
              HEAD IN LAYER   1 AT END OF TIME STEP  25 IN STRESS PERIOD    2
  ---------------------------------------------------------------------------

            1           2           3           4           5           6           7           8           9          10
 ........................................................................................................................
   1    9.997       9.012       8.012       6.984       5.917       4.807       3.653       2.461       1.240      4.1199E-03
   2    9.997       9.012       8.012       6.984       5.917       4.807       3.653       2.461       1.240      4.1199E-03
   3    9.997       9.012       8.012       6.984       5.917       4.807       3.653       2.461       1.240      4.1199E-03
   4    9.997       9.012       8.012       6.984       5.917       4.807       3.653       2.461       1.240      4.1199E-03
   5    9.997       9.012       8.012       6.984       5.917       4.807       3.653       2.461       1.240      4.1199E-03
   6    9.997       9.012       8.012       6.984       5.917       4.807       3.653       2.461       1.240      4.1199E-03
   7    9.997       9.012       8.012       6.984       5.917       4.807       3.653       2.461       1.240      4.1199E-03
   8    9.997       9.012       8.012       6.984       5.917       4.807       3.653       2.461       1.240      4.1199E-03
   9    9.997       9.012       8.012       6.984       5.917       4.807       3.653       2.461       1.240      4.1199E-03
  10    9.997       9.012       8.012       6.984       5.917       4.807       3.653       2.461       1.240      4.1199E-03
1
              HEAD IN LAYER   2 AT END OF TIME STEP  25 IN STRESS PERIOD    2
  ---------------------------------------------------------------------------

            1           2           3           4           5           6           7           8           9          10
 ........................................................................................................................
   1    9.997       9.012       8.012       6.984       5.917       4.807       3.653       2.461       1.240      4.1199E-03
   2    9.997       9.012       8.012       6.984       5.917       4.807       3.653       2.461       1.240      4.1199E-03
   3    9.997       9.012       8.012       6.984       5.917       4.807       3.653       2.461       1.240      4.1199E-03
   4    9.997       9.012       8.012       6.984       5.917       4.807       3.653       2.461       1.240      4.1199E-03
   5    9.997       9.012       8.012       6.984       5.917       4.807       3.653       2.461       1.240      4.1199E-03
   6    9.997       9.012       8.012       6.984       5.917       4.807       3.653       2.461       1.240      4.1199E-03
   7    9.997       9.012       8.012       6.984       5.917       4.807       3.653       2.461       1.240      4.1199E-03
   8    9.997       9.012       8.012       6.984       5.917       4.807       3.653       2.461       1.240      4.1199E-03
   9    9.997       9.012       8.012       6.984       5.917       4.807       3.653       2.461       1.240      4.1199E-03
  10    9.997       9.012       8.012       6.984       5.917       4.807       3.653       2.461       1.240      4.1199E-03
1
              HEAD IN LAYER   3 AT END OF TIME STEP  25 IN STRESS PERIOD    2
  ---------------------------------------------------------------------------

            1           2           3           4           5           6           7           8           9          10
 ........................................................................................................................
   1    9.997       9.012       8.012       6.984       5.917       4.807       3.653       2.461       1.240      4.1199E-03
   2    9.997       9.012       8.012       6.984       5.917       4.807       3.653       2.461       1.240      4.1199E-03
   3    9.997       9.012       8.012       6.984       5.917       4.807       3.653       2.461       1.240      4.1199E-03
   4    9.997       9.012       8.012       6.984       5.917       4.807       3.653       2.461       1.240      4.1199E-03
   5    9.997       9.012       8.012       6.984       5.917       4.807       3.653       2.461       1.240      4.1199E-03
   6    9.997       9.012       8.012       6.984       5.917       4.807       3.653       2.461       1.240      4.1199E-03
   7    9.997       9.012       8.012       6.984       5.917       4.807       3.653       2.461       1.240      4.1199E-03
   8    9.997       9.012       8.012       6.984       5.917       4.807       3.653       2.461       1.240      4.1199E-03
   9    9.997       9.012       8.012       6.984       5.917       4.807       3.653       2.461       1.240      4.1199E-03
  10    9.997       9.012       8.012       6.984       5.917       4.807       3.653       2.461       1.240      4.1199E-03

 HEAD WILL BE SAVED ON UNIT   51 AT END OF TIME STEP   25, STRESS PERIOD    2

 DRAWDOWN WILL BE SAVED ON UNIT   52 AT END OF TIME STEP   25, STRESS PERIOD    2
1
  VOLUMETRIC BUDGET FOR ENTIRE MODEL AT END OF TIME STEP   25, STRESS PERIOD   2
  ------------------------------------------------------------------------------

     CUMULATIVE VOLUMES      L**3       RATES FOR THIS TIME STEP      L**3/T
     ------------------                 ------------------------

           IN:                                      IN:
           ---                                      ---
             STORAGE =       23956.8340               STORAGE =         125.4658
       CONSTANT HEAD =           0.0000         CONSTANT HEAD =           0.0000
               WELLS =           0.0000                 WELLS =           0.0000
       RIVER LEAKAGE =        6984.5542         RIVER LEAKAGE =         492.4853

            TOTAL IN =       30941.3887              TOTAL IN =         617.9511

          OUT:                                     OUT:
          ----                                     ----
             STORAGE =           0.0000               STORAGE =           0.0000
       CONSTANT HEAD =           0.0000         CONSTANT HEAD =           0.0000
               WELLS =           0.0000                 WELLS =           0.0000
       RIVER LEAKAGE =       30942.6504         RIVER LEAKAGE =         617.9796

           TOTAL OUT =       30942.6504             TOTAL OUT =         617.9796

            IN - OUT =          -1.2617              IN - OUT =      -2.8442E-02

 PERCENT DISCREPANCY =          -0.00     PERCENT DISCREPANCY =          -0.00






         TIME SUMMARY AT END OF TIME STEP   25 IN STRESS PERIOD    2
                    SECONDS     MINUTES      HOURS       DAYS        YEARS
                    -----------------------------------------------------------
   TIME STEP LENGTH  86400.      1440.0      24.000      1.0000     2.73785E-03
 STRESS PERIOD TIME 2.16000E+06  36000.      600.00      25.000     6.84463E-02
         TOTAL TIME 2.24640E+06  37440.      624.00      26.000     7.11841E-02
1

 SOLVING FOR HEAD 

 OUTPUT CONTROL FOR STRESS PERIOD    2   TIME STEP   26
    SAVE HEAD FOR ALL LAYERS
    SAVE DRAWDOWN FOR ALL LAYERS
    SAVE BUDGET
    PRINT HEAD FOR ALL LAYERS
    PRINT BUDGET
 UBDSV1 SAVING "         STORAGE" ON UNIT  53 AT TIME STEP 26, STRESS PERIOD   2
 UBDSV2 SAVING "   CONSTANT HEAD" ON UNIT  53 AT TIME STEP 26, STRESS PERIOD   2
 UBDSV1 SAVING "FLOW RIGHT FACE " ON UNIT  53 AT TIME STEP 26, STRESS PERIOD   2
 UBDSV1 SAVING "FLOW FRONT FACE " ON UNIT  53 AT TIME STEP 26, STRESS PERIOD   2
 UBDSV1 SAVING "FLOW LOWER FACE " ON UNIT  53 AT TIME STEP 26, STRESS PERIOD   2
1
              HEAD IN LAYER   1 AT END OF TIME STEP  26 IN STRESS PERIOD    2
  ---------------------------------------------------------------------------

            1           2           3           4           5           6           7           8           9          10
 ........................................................................................................................
   1    9.997       8.999       7.987       6.949       5.878       4.768       3.619       2.435       1.226      4.0748E-03
   2    9.997       8.999       7.987       6.949       5.878       4.768       3.619       2.435       1.226      4.0748E-03
   3    9.997       8.999       7.987       6.949       5.878       4.768       3.619       2.435       1.226      4.0748E-03
   4    9.997       8.999       7.987       6.949       5.878       4.768       3.619       2.435       1.226      4.0748E-03
   5    9.997       8.999       7.987       6.949       5.878       4.768       3.619       2.435       1.226      4.0748E-03
   6    9.997       8.999       7.987       6.949       5.878       4.768       3.619       2.435       1.226      4.0748E-03
   7    9.997       8.999       7.987       6.949       5.878       4.768       3.619       2.435       1.226      4.0748E-03
   8    9.997       8.999       7.987       6.949       5.878       4.768       3.619       2.435       1.226      4.0748E-03
   9    9.997       8.999       7.987       6.949       5.878       4.768       3.619       2.435       1.226      4.0748E-03
  10    9.997       8.999       7.987       6.949       5.878       4.768       3.619       2.435       1.226      4.0748E-03
1
              HEAD IN LAYER   2 AT END OF TIME STEP  26 IN STRESS PERIOD    2
  ---------------------------------------------------------------------------

            1           2           3           4           5           6           7           8           9          10
 ........................................................................................................................
   1    9.997       8.999       7.987       6.949       5.878       4.768       3.619       2.435       1.226      4.0748E-03
   2    9.997       8.999       7.987       6.949       5.878       4.768       3.619       2.435       1.226      4.0748E-03
   3    9.997       8.999       7.987       6.949       5.878       4.768       3.619       2.435       1.226      4.0748E-03
   4    9.997       8.999       7.987       6.949       5.878       4.768       3.619       2.435       1.226      4.0748E-03
   5    9.997       8.999       7.987       6.949       5.878       4.768       3.619       2.435       1.226      4.0748E-03
   6    9.997       8.999       7.987       6.949       5.878       4.768       3.619       2.435       1.226      4.0748E-03
   7    9.997       8.999       7.987       6.949       5.878       4.768       3.619       2.435       1.226      4.0748E-03
   8    9.997       8.999       7.987       6.949       5.878       4.768       3.619       2.435       1.226      4.0748E-03
   9    9.997       8.999       7.987       6.949       5.878       4.768       3.619       2.435       1.226      4.0748E-03
  10    9.997       8.999       7.987       6.949       5.878       4.768       3.619       2.435       1.226      4.0748E-03
1
              HEAD IN LAYER   3 AT END OF TIME STEP  26 IN STRESS PERIOD    2
  ---------------------------------------------------------------------------

            1           2           3           4           5           6           7           8           9          10
 ........................................................................................................................
   1    9.997       8.999       7.987       6.949       5.878       4.768       3.619       2.435       1.226      4.0748E-03
   2    9.997       8.999       7.987       6.949       5.878       4.768       3.619       2.435       1.226      4.0748E-03
   3    9.997       8.999       7.987       6.949       5.878       4.768       3.619       2.435       1.226      4.0748E-03
   4    9.997       8.999       7.987       6.949       5.878       4.768       3.619       2.435       1.226      4.0748E-03
   5    9.997       8.999       7.987       6.949       5.878       4.768       3.619       2.435       1.226      4.0748E-03
   6    9.997       8.999       7.987       6.949       5.878       4.768       3.619       2.435       1.226      4.0748E-03
   7    9.997       8.999       7.987       6.949       5.878       4.768       3.619       2.435       1.226      4.0748E-03
   8    9.997       8.999       7.987       6.949       5.878       4.768       3.619       2.435       1.226      4.0748E-03
   9    9.997       8.999       7.987       6.949       5.878       4.768       3.619       2.435       1.226      4.0748E-03
  10    9.997       8.999       7.987       6.949       5.878       4.768       3.619       2.435       1.226      4.0748E-03

 HEAD WILL BE SAVED ON UNIT   51 AT END OF TIME STEP   26, STRESS PERIOD    2

 DRAWDOWN WILL BE SAVED ON UNIT   52 AT END OF TIME STEP   26, STRESS PERIOD    2
1
  VOLUMETRIC BUDGET FOR ENTIRE MODEL AT END OF TIME STEP   26, STRESS PERIOD   2
  ------------------------------------------------------------------------------

     CUMULATIVE VOLUMES      L**3       RATES FOR THIS TIME STEP      L**3/T
     ------------------                 ------------------------

           IN:                                      IN:
           ---                                      ---
             STORAGE =       24068.8105               STORAGE =         111.9770
       CONSTANT HEAD =           0.0000         CONSTANT HEAD =           0.0000
               WELLS =           0.0000                 WELLS =           0.0000
       RIVER LEAKAGE =        7483.7417         RIVER LEAKAGE =         499.1873

            TOTAL IN =       31552.5527              TOTAL IN =         611.1642

          OUT:                                     OUT:
          ----                                     ----
             STORAGE =           0.0000               STORAGE =           0.0000
       CONSTANT HEAD =           0.0000         CONSTANT HEAD =           0.0000
               WELLS =           0.0000                 WELLS =           0.0000
       RIVER LEAKAGE =       31553.8633         RIVER LEAKAGE =         611.2139

           TOTAL OUT =       31553.8633             TOTAL OUT =         611.2139

            IN - OUT =          -1.3105              IN - OUT =      -4.9622E-02

 PERCENT DISCREPANCY =          -0.00     PERCENT DISCREPANCY =          -0.01






         TIME SUMMARY AT END OF TIME STEP   26 IN STRESS PERIOD    2
                    SECONDS     MINUTES      HOURS       DAYS        YEARS
                    -----------------------------------------------------------
   TIME STEP LENGTH  86400.      1440.0      24.000      1.0000     2.73785E-03
 STRESS PERIOD TIME 2.24640E+06  37440.      624.00      26.000     7.11841E-02
         TOTAL TIME 2.33280E+06  38880.      648.00      27.000     7.39220E-02
1

 SOLVING FOR HEAD 

 OUTPUT CONTROL FOR STRESS PERIOD    2   TIME STEP   27
    SAVE HEAD FOR ALL LAYERS
    SAVE DRAWDOWN FOR ALL LAYERS
    SAVE BUDGET
    PRINT HEAD FOR ALL LAYERS
    PRINT BUDGET
 UBDSV1 SAVING "         STORAGE" ON UNIT  53 AT TIME STEP 27, STRESS PERIOD   2
 UBDSV2 SAVING "   CONSTANT HEAD" ON UNIT  53 AT TIME STEP 27, STRESS PERIOD   2
 UBDSV1 SAVING "FLOW RIGHT FACE " ON UNIT  53 AT TIME STEP 27, STRESS PERIOD   2
 UBDSV1 SAVING "FLOW FRONT FACE " ON UNIT  53 AT TIME STEP 27, STRESS PERIOD   2
 UBDSV1 SAVING "FLOW LOWER FACE " ON UNIT  53 AT TIME STEP 27, STRESS PERIOD   2
1
              HEAD IN LAYER   1 AT END OF TIME STEP  27 IN STRESS PERIOD    2
  ---------------------------------------------------------------------------

            1           2           3           4           5           6           7           8           9          10
 ........................................................................................................................
   1    9.997       8.987       7.964       6.919       5.843       4.733       3.588       2.413       1.214      4.0345E-03
   2    9.997       8.987       7.964       6.919       5.843       4.733       3.588       2.413       1.214      4.0345E-03
   3    9.997       8.987       7.964       6.919       5.843       4.733       3.588       2.413       1.214      4.0345E-03
   4    9.997       8.987       7.964       6.919       5.843       4.733       3.588       2.413       1.214      4.0345E-03
   5    9.997       8.987       7.964       6.919       5.843       4.733       3.588       2.413       1.214      4.0345E-03
   6    9.997       8.987       7.964       6.919       5.843       4.733       3.588       2.413       1.214      4.0345E-03
   7    9.997       8.987       7.964       6.919       5.843       4.733       3.588       2.413       1.214      4.0345E-03
   8    9.997       8.987       7.964       6.919       5.843       4.733       3.588       2.413       1.214      4.0345E-03
   9    9.997       8.987       7.964       6.919       5.843       4.733       3.588       2.413       1.214      4.0345E-03
  10    9.997       8.987       7.964       6.919       5.843       4.733       3.588       2.413       1.214      4.0345E-03
1
              HEAD IN LAYER   2 AT END OF TIME STEP  27 IN STRESS PERIOD    2
  ---------------------------------------------------------------------------

            1           2           3           4           5           6           7           8           9          10
 ........................................................................................................................
   1    9.997       8.987       7.964       6.919       5.843       4.733       3.588       2.413       1.214      4.0345E-03
   2    9.997       8.987       7.964       6.919       5.843       4.733       3.588       2.413       1.214      4.0345E-03
   3    9.997       8.987       7.964       6.919       5.843       4.733       3.588       2.413       1.214      4.0345E-03
   4    9.997       8.987       7.964       6.919       5.843       4.733       3.588       2.413       1.214      4.0345E-03
   5    9.997       8.987       7.964       6.919       5.843       4.733       3.588       2.413       1.214      4.0345E-03
   6    9.997       8.987       7.964       6.919       5.843       4.733       3.588       2.413       1.214      4.0345E-03
   7    9.997       8.987       7.964       6.919       5.843       4.733       3.588       2.413       1.214      4.0345E-03
   8    9.997       8.987       7.964       6.919       5.843       4.733       3.588       2.413       1.214      4.0345E-03
   9    9.997       8.987       7.964       6.919       5.843       4.733       3.588       2.413       1.214      4.0345E-03
  10    9.997       8.987       7.964       6.919       5.843       4.733       3.588       2.413       1.214      4.0345E-03
1
              HEAD IN LAYER   3 AT END OF TIME STEP  27 IN STRESS PERIOD    2
  ---------------------------------------------------------------------------

            1           2           3           4           5           6           7           8           9          10
 ........................................................................................................................
   1    9.997       8.987       7.964       6.919       5.843       4.733       3.588       2.413       1.214      4.0345E-03
   2    9.997       8.987       7.964       6.919       5.843       4.733       3.588       2.413       1.214      4.0345E-03
   3    9.997       8.987       7.964       6.919       5.843       4.733       3.588       2.413       1.214      4.0345E-03
   4    9.997       8.987       7.964       6.919       5.843       4.733       3.588       2.413       1.214      4.0345E-03
   5    9.997       8.987       7.964       6.919       5.843       4.733       3.588       2.413       1.214      4.0345E-03
   6    9.997       8.987       7.964       6.919       5.843       4.733       3.588       2.413       1.214      4.0345E-03
   7    9.997       8.987       7.964       6.919       5.843       4.733       3.588       2.413       1.214      4.0345E-03
   8    9.997       8.987       7.964       6.919       5.843       4.733       3.588       2.413       1.214      4.0345E-03
   9    9.997       8.987       7.964       6.919       5.843       4.733       3.588       2.413       1.214      4.0345E-03
  10    9.997       8.987       7.964       6.919       5.843       4.733       3.588       2.413       1.214      4.0345E-03

 HEAD WILL BE SAVED ON UNIT   51 AT END OF TIME STEP   27, STRESS PERIOD    2

 DRAWDOWN WILL BE SAVED ON UNIT   52 AT END OF TIME STEP   27, STRESS PERIOD    2
1
  VOLUMETRIC BUDGET FOR ENTIRE MODEL AT END OF TIME STEP   27, STRESS PERIOD   2
  ------------------------------------------------------------------------------

     CUMULATIVE VOLUMES      L**3       RATES FOR THIS TIME STEP      L**3/T
     ------------------                 ------------------------

           IN:                                      IN:
           ---                                      ---
             STORAGE =       24168.7480               STORAGE =          99.9377
       CONSTANT HEAD =           0.0000         CONSTANT HEAD =           0.0000
               WELLS =           0.0000                 WELLS =           0.0000
       RIVER LEAKAGE =        7988.9150         RIVER LEAKAGE =         505.1732

            TOTAL IN =       32157.6641              TOTAL IN =         605.1110

          OUT:                                     OUT:
          ----                                     ----
             STORAGE =           0.0000               STORAGE =           0.0000
       CONSTANT HEAD =           0.0000         CONSTANT HEAD =           0.0000
               WELLS =           0.0000                 WELLS =           0.0000
       RIVER LEAKAGE =       32159.0430         RIVER LEAKAGE =         605.1794

           TOTAL OUT =       32159.0430             TOTAL OUT =         605.1794

            IN - OUT =          -1.3789              IN - OUT =      -6.8420E-02

 PERCENT DISCREPANCY =          -0.00     PERCENT DISCREPANCY =          -0.01






         TIME SUMMARY AT END OF TIME STEP   27 IN STRESS PERIOD    2
                    SECONDS     MINUTES      HOURS       DAYS        YEARS
                    -----------------------------------------------------------
   TIME STEP LENGTH  86400.      1440.0      24.000      1.0000     2.73785E-03
 STRESS PERIOD TIME 2.33280E+06  38880.      648.00      27.000     7.39220E-02
         TOTAL TIME 2.41920E+06  40320.      672.00      28.000     7.66598E-02
1

 SOLVING FOR HEAD 

 OUTPUT CONTROL FOR STRESS PERIOD    2   TIME STEP   28
    SAVE HEAD FOR ALL LAYERS
    SAVE DRAWDOWN FOR ALL LAYERS
    SAVE BUDGET
    PRINT HEAD FOR ALL LAYERS
    PRINT BUDGET
 UBDSV1 SAVING "         STORAGE" ON UNIT  53 AT TIME STEP 28, STRESS PERIOD   2
 UBDSV2 SAVING "   CONSTANT HEAD" ON UNIT  53 AT TIME STEP 28, STRESS PERIOD   2
 UBDSV1 SAVING "FLOW RIGHT FACE " ON UNIT  53 AT TIME STEP 28, STRESS PERIOD   2
 UBDSV1 SAVING "FLOW FRONT FACE " ON UNIT  53 AT TIME STEP 28, STRESS PERIOD   2
 UBDSV1 SAVING "FLOW LOWER FACE " ON UNIT  53 AT TIME STEP 28, STRESS PERIOD   2
1
              HEAD IN LAYER   1 AT END OF TIME STEP  28 IN STRESS PERIOD    2
  ---------------------------------------------------------------------------

            1           2           3           4           5           6           7           8           9          10
 ........................................................................................................................
   1    9.997       8.976       7.944       6.892       5.812       4.702       3.561       2.392       1.204      3.9987E-03
   2    9.997       8.976       7.944       6.892       5.812       4.702       3.561       2.392       1.204      3.9987E-03
   3    9.997       8.976       7.944       6.892       5.812       4.702       3.561       2.392       1.204      3.9987E-03
   4    9.997       8.976       7.944       6.892       5.812       4.702       3.561       2.392       1.204      3.9987E-03
   5    9.997       8.976       7.944       6.892       5.812       4.702       3.561       2.392       1.204      3.9987E-03
   6    9.997       8.976       7.944       6.892       5.812       4.702       3.561       2.392       1.204      3.9987E-03
   7    9.997       8.976       7.944       6.892       5.812       4.702       3.561       2.392       1.204      3.9987E-03
   8    9.997       8.976       7.944       6.892       5.812       4.702       3.561       2.392       1.204      3.9987E-03
   9    9.997       8.976       7.944       6.892       5.812       4.702       3.561       2.392       1.204      3.9987E-03
  10    9.997       8.976       7.944       6.892       5.812       4.702       3.561       2.392       1.204      3.9987E-03
1
              HEAD IN LAYER   2 AT END OF TIME STEP  28 IN STRESS PERIOD    2
  ---------------------------------------------------------------------------

            1           2           3           4           5           6           7           8           9          10
 ........................................................................................................................
   1    9.997       8.976       7.944       6.892       5.812       4.702       3.561       2.392       1.204      3.9987E-03
   2    9.997       8.976       7.944       6.892       5.812       4.702       3.561       2.392       1.204      3.9987E-03
   3    9.997       8.976       7.944       6.892       5.812       4.702       3.561       2.392       1.204      3.9987E-03
   4    9.997       8.976       7.944       6.892       5.812       4.702       3.561       2.392       1.204      3.9987E-03
   5    9.997       8.976       7.944       6.892       5.812       4.702       3.561       2.392       1.204      3.9987E-03
   6    9.997       8.976       7.944       6.892       5.812       4.702       3.561       2.392       1.204      3.9987E-03
   7    9.997       8.976       7.944       6.892       5.812       4.702       3.561       2.392       1.204      3.9987E-03
   8    9.997       8.976       7.944       6.892       5.812       4.702       3.561       2.392       1.204      3.9987E-03
   9    9.997       8.976       7.944       6.892       5.812       4.702       3.561       2.392       1.204      3.9987E-03
  10    9.997       8.976       7.944       6.892       5.812       4.702       3.561       2.392       1.204      3.9987E-03
1
              HEAD IN LAYER   3 AT END OF TIME STEP  28 IN STRESS PERIOD    2
  ---------------------------------------------------------------------------

            1           2           3           4           5           6           7           8           9          10
 ........................................................................................................................
   1    9.997       8.976       7.944       6.892       5.812       4.702       3.561       2.392       1.204      3.9987E-03
   2    9.997       8.976       7.944       6.892       5.812       4.702       3.561       2.392       1.204      3.9987E-03
   3    9.997       8.976       7.944       6.892       5.812       4.702       3.561       2.392       1.204      3.9987E-03
   4    9.997       8.976       7.944       6.892       5.812       4.702       3.561       2.392       1.204      3.9987E-03
   5    9.997       8.976       7.944       6.892       5.812       4.702       3.561       2.392       1.204      3.9987E-03
   6    9.997       8.976       7.944       6.892       5.812       4.702       3.561       2.392       1.204      3.9987E-03
   7    9.997       8.976       7.944       6.892       5.812       4.702       3.561       2.392       1.204      3.9987E-03
   8    9.997       8.976       7.944       6.892       5.812       4.702       3.561       2.392       1.204      3.9987E-03
   9    9.997       8.976       7.944       6.892       5.812       4.702       3.561       2.392       1.204      3.9987E-03
  10    9.997       8.976       7.944       6.892       5.812       4.702       3.561       2.392       1.204      3.9987E-03

 HEAD WILL BE SAVED ON UNIT   51 AT END OF TIME STEP   28, STRESS PERIOD    2

 DRAWDOWN WILL BE SAVED ON UNIT   52 AT END OF TIME STEP   28, STRESS PERIOD    2
1
  VOLUMETRIC BUDGET FOR ENTIRE MODEL AT END OF TIME STEP   28, STRESS PERIOD   2
  ------------------------------------------------------------------------------

     CUMULATIVE VOLUMES      L**3       RATES FOR THIS TIME STEP      L**3/T
     ------------------                 ------------------------

           IN:                                      IN:
           ---                                      ---
             STORAGE =       24257.9434               STORAGE =          89.1947
       CONSTANT HEAD =           0.0000         CONSTANT HEAD =           0.0000
               WELLS =           0.0000                 WELLS =           0.0000
       RIVER LEAKAGE =        8499.4336         RIVER LEAKAGE =         510.5184

            TOTAL IN =       32757.3770              TOTAL IN =         599.7131

          OUT:                                     OUT:
          ----                                     ----
             STORAGE =           0.0000               STORAGE =           0.0000
       CONSTANT HEAD =           0.0000         CONSTANT HEAD =           0.0000
               WELLS =           0.0000                 WELLS =           0.0000
       RIVER LEAKAGE =       32758.8418         RIVER LEAKAGE =         599.7984

           TOTAL OUT =       32758.8418             TOTAL OUT =         599.7984

            IN - OUT =          -1.4648              IN - OUT =      -8.5266E-02

 PERCENT DISCREPANCY =          -0.00     PERCENT DISCREPANCY =          -0.01






         TIME SUMMARY AT END OF TIME STEP   28 IN STRESS PERIOD    2
                    SECONDS     MINUTES      HOURS       DAYS        YEARS
                    -----------------------------------------------------------
   TIME STEP LENGTH  86400.      1440.0      24.000      1.0000     2.73785E-03
 STRESS PERIOD TIME 2.41920E+06  40320.      672.00      28.000     7.66598E-02
         TOTAL TIME 2.50560E+06  41760.      696.00      29.000     7.93977E-02
1

 SOLVING FOR HEAD 

 OUTPUT CONTROL FOR STRESS PERIOD    2   TIME STEP   29
    SAVE HEAD FOR ALL LAYERS
    SAVE DRAWDOWN FOR ALL LAYERS
    SAVE BUDGET
    PRINT HEAD FOR ALL LAYERS
    PRINT BUDGET
 UBDSV1 SAVING "         STORAGE" ON UNIT  53 AT TIME STEP 29, STRESS PERIOD   2
 UBDSV2 SAVING "   CONSTANT HEAD" ON UNIT  53 AT TIME STEP 29, STRESS PERIOD   2
 UBDSV1 SAVING "FLOW RIGHT FACE " ON UNIT  53 AT TIME STEP 29, STRESS PERIOD   2
 UBDSV1 SAVING "FLOW FRONT FACE " ON UNIT  53 AT TIME STEP 29, STRESS PERIOD   2
 UBDSV1 SAVING "FLOW LOWER FACE " ON UNIT  53 AT TIME STEP 29, STRESS PERIOD   2
1
              HEAD IN LAYER   1 AT END OF TIME STEP  29 IN STRESS PERIOD    2
  ---------------------------------------------------------------------------

            1           2           3           4           5           6           7           8           9          10
 ........................................................................................................................
   1    9.997       8.966       7.926       6.867       5.785       4.674       3.537       2.374       1.194      3.9666E-03
   2    9.997       8.966       7.926       6.867       5.785       4.674       3.537       2.374       1.194      3.9666E-03
   3    9.997       8.966       7.926       6.867       5.785       4.674       3.537       2.374       1.194      3.9666E-03
   4    9.997       8.966       7.926       6.867       5.785       4.674       3.537       2.374       1.194      3.9666E-03
   5    9.997       8.966       7.926       6.867       5.785       4.674       3.537       2.374       1.194      3.9666E-03
   6    9.997       8.966       7.926       6.867       5.785       4.674       3.537       2.374       1.194      3.9666E-03
   7    9.997       8.966       7.926       6.867       5.785       4.674       3.537       2.374       1.194      3.9666E-03
   8    9.997       8.966       7.926       6.867       5.785       4.674       3.537       2.374       1.194      3.9666E-03
   9    9.997       8.966       7.926       6.867       5.785       4.674       3.537       2.374       1.194      3.9666E-03
  10    9.997       8.966       7.926       6.867       5.785       4.674       3.537       2.374       1.194      3.9666E-03
1
              HEAD IN LAYER   2 AT END OF TIME STEP  29 IN STRESS PERIOD    2
  ---------------------------------------------------------------------------

            1           2           3           4           5           6           7           8           9          10
 ........................................................................................................................
   1    9.997       8.966       7.926       6.867       5.785       4.674       3.537       2.374       1.194      3.9666E-03
   2    9.997       8.966       7.926       6.867       5.785       4.674       3.537       2.374       1.194      3.9666E-03
   3    9.997       8.966       7.926       6.867       5.785       4.674       3.537       2.374       1.194      3.9666E-03
   4    9.997       8.966       7.926       6.867       5.785       4.674       3.537       2.374       1.194      3.9666E-03
   5    9.997       8.966       7.926       6.867       5.785       4.674       3.537       2.374       1.194      3.9666E-03
   6    9.997       8.966       7.926       6.867       5.785       4.674       3.537       2.374       1.194      3.9666E-03
   7    9.997       8.966       7.926       6.867       5.785       4.674       3.537       2.374       1.194      3.9666E-03
   8    9.997       8.966       7.926       6.867       5.785       4.674       3.537       2.374       1.194      3.9666E-03
   9    9.997       8.966       7.926       6.867       5.785       4.674       3.537       2.374       1.194      3.9666E-03
  10    9.997       8.966       7.926       6.867       5.785       4.674       3.537       2.374       1.194      3.9666E-03
1
              HEAD IN LAYER   3 AT END OF TIME STEP  29 IN STRESS PERIOD    2
  ---------------------------------------------------------------------------

            1           2           3           4           5           6           7           8           9          10
 ........................................................................................................................
   1    9.997       8.966       7.926       6.867       5.785       4.674       3.537       2.374       1.194      3.9666E-03
   2    9.997       8.966       7.926       6.867       5.785       4.674       3.537       2.374       1.194      3.9666E-03
   3    9.997       8.966       7.926       6.867       5.785       4.674       3.537       2.374       1.194      3.9666E-03
   4    9.997       8.966       7.926       6.867       5.785       4.674       3.537       2.374       1.194      3.9666E-03
   5    9.997       8.966       7.926       6.867       5.785       4.674       3.537       2.374       1.194      3.9666E-03
   6    9.997       8.966       7.926       6.867       5.785       4.674       3.537       2.374       1.194      3.9666E-03
   7    9.997       8.966       7.926       6.867       5.785       4.674       3.537       2.374       1.194      3.9666E-03
   8    9.997       8.966       7.926       6.867       5.785       4.674       3.537       2.374       1.194      3.9666E-03
   9    9.997       8.966       7.926       6.867       5.785       4.674       3.537       2.374       1.194      3.9666E-03
  10    9.997       8.966       7.926       6.867       5.785       4.674       3.537       2.374       1.194      3.9666E-03

 HEAD WILL BE SAVED ON UNIT   51 AT END OF TIME STEP   29, STRESS PERIOD    2

 DRAWDOWN WILL BE SAVED ON UNIT   52 AT END OF TIME STEP   29, STRESS PERIOD    2
1
  VOLUMETRIC BUDGET FOR ENTIRE MODEL AT END OF TIME STEP   29, STRESS PERIOD   2
  ------------------------------------------------------------------------------

     CUMULATIVE VOLUMES      L**3       RATES FOR THIS TIME STEP      L**3/T
     ------------------                 ------------------------

           IN:                                      IN:
           ---                                      ---
             STORAGE =       24337.5469               STORAGE =          79.6043
       CONSTANT HEAD =           0.0000         CONSTANT HEAD =           0.0000
               WELLS =           0.0000                 WELLS =           0.0000
       RIVER LEAKAGE =        9014.7246         RIVER LEAKAGE =         515.2914

            TOTAL IN =       33352.2734              TOTAL IN =         594.8957

          OUT:                                     OUT:
          ----                                     ----
             STORAGE =           0.0000               STORAGE =           0.0000
       CONSTANT HEAD =           0.0000         CONSTANT HEAD =           0.0000
               WELLS =           0.0000                 WELLS =           0.0000
       RIVER LEAKAGE =       33353.8359         RIVER LEAKAGE =         594.9961

           TOTAL OUT =       33353.8359             TOTAL OUT =         594.9961

            IN - OUT =          -1.5625              IN - OUT =          -0.1004

 PERCENT DISCREPANCY =          -0.00     PERCENT DISCREPANCY =          -0.02






         TIME SUMMARY AT END OF TIME STEP   29 IN STRESS PERIOD    2
                    SECONDS     MINUTES      HOURS       DAYS        YEARS
                    -----------------------------------------------------------
   TIME STEP LENGTH  86400.      1440.0      24.000      1.0000     2.73785E-03
 STRESS PERIOD TIME 2.50560E+06  41760.      696.00      29.000     7.93977E-02
         TOTAL TIME 2.59200E+06  43200.      720.00      30.000     8.21355E-02
1

 SOLVING FOR HEAD 

 OUTPUT CONTROL FOR STRESS PERIOD    2   TIME STEP   30
    SAVE HEAD FOR ALL LAYERS
    SAVE DRAWDOWN FOR ALL LAYERS
    SAVE BUDGET
    PRINT HEAD FOR ALL LAYERS
    PRINT BUDGET
 UBDSV1 SAVING "         STORAGE" ON UNIT  53 AT TIME STEP 30, STRESS PERIOD   2
 UBDSV2 SAVING "   CONSTANT HEAD" ON UNIT  53 AT TIME STEP 30, STRESS PERIOD   2
 UBDSV1 SAVING "FLOW RIGHT FACE " ON UNIT  53 AT TIME STEP 30, STRESS PERIOD   2
 UBDSV1 SAVING "FLOW FRONT FACE " ON UNIT  53 AT TIME STEP 30, STRESS PERIOD   2
 UBDSV1 SAVING "FLOW LOWER FACE " ON UNIT  53 AT TIME STEP 30, STRESS PERIOD   2
1
              HEAD IN LAYER   1 AT END OF TIME STEP  30 IN STRESS PERIOD    2
  ---------------------------------------------------------------------------

            1           2           3           4           5           6           7           8           9          10
 ........................................................................................................................
   1    9.997       8.958       7.910       6.846       5.760       4.650       3.515       2.358       1.185      3.9381E-03
   2    9.997       8.958       7.910       6.846       5.760       4.650       3.515       2.358       1.185      3.9381E-03
   3    9.997       8.958       7.910       6.846       5.760       4.650       3.515       2.358       1.185      3.9381E-03
   4    9.997       8.958       7.910       6.846       5.760       4.650       3.515       2.358       1.185      3.9381E-03
   5    9.997       8.958       7.910       6.846       5.760       4.650       3.515       2.358       1.185      3.9381E-03
   6    9.997       8.958       7.910       6.846       5.760       4.650       3.515       2.358       1.185      3.9381E-03
   7    9.997       8.958       7.910       6.846       5.760       4.650       3.515       2.358       1.185      3.9381E-03
   8    9.997       8.958       7.910       6.846       5.760       4.650       3.515       2.358       1.185      3.9381E-03
   9    9.997       8.958       7.910       6.846       5.760       4.650       3.515       2.358       1.185      3.9381E-03
  10    9.997       8.958       7.910       6.846       5.760       4.650       3.515       2.358       1.185      3.9381E-03
1
              HEAD IN LAYER   2 AT END OF TIME STEP  30 IN STRESS PERIOD    2
  ---------------------------------------------------------------------------

            1           2           3           4           5           6           7           8           9          10
 ........................................................................................................................
   1    9.997       8.958       7.910       6.846       5.760       4.650       3.515       2.358       1.185      3.9381E-03
   2    9.997       8.958       7.910       6.846       5.760       4.650       3.515       2.358       1.185      3.9381E-03
   3    9.997       8.958       7.910       6.846       5.760       4.650       3.515       2.358       1.185      3.9381E-03
   4    9.997       8.958       7.910       6.846       5.760       4.650       3.515       2.358       1.185      3.9381E-03
   5    9.997       8.958       7.910       6.846       5.760       4.650       3.515       2.358       1.185      3.9381E-03
   6    9.997       8.958       7.910       6.846       5.760       4.650       3.515       2.358       1.185      3.9381E-03
   7    9.997       8.958       7.910       6.846       5.760       4.650       3.515       2.358       1.185      3.9381E-03
   8    9.997       8.958       7.910       6.846       5.760       4.650       3.515       2.358       1.185      3.9381E-03
   9    9.997       8.958       7.910       6.846       5.760       4.650       3.515       2.358       1.185      3.9381E-03
  10    9.997       8.958       7.910       6.846       5.760       4.650       3.515       2.358       1.185      3.9381E-03
1
              HEAD IN LAYER   3 AT END OF TIME STEP  30 IN STRESS PERIOD    2
  ---------------------------------------------------------------------------

            1           2           3           4           5           6           7           8           9          10
 ........................................................................................................................
   1    9.997       8.958       7.910       6.846       5.760       4.650       3.515       2.358       1.185      3.9381E-03
   2    9.997       8.958       7.910       6.846       5.760       4.650       3.515       2.358       1.185      3.9381E-03
   3    9.997       8.958       7.910       6.846       5.760       4.650       3.515       2.358       1.185      3.9381E-03
   4    9.997       8.958       7.910       6.846       5.760       4.650       3.515       2.358       1.185      3.9381E-03
   5    9.997       8.958       7.910       6.846       5.760       4.650       3.515       2.358       1.185      3.9381E-03
   6    9.997       8.958       7.910       6.846       5.760       4.650       3.515       2.358       1.185      3.9381E-03
   7    9.997       8.958       7.910       6.846       5.760       4.650       3.515       2.358       1.185      3.9381E-03
   8    9.997       8.958       7.910       6.846       5.760       4.650       3.515       2.358       1.185      3.9381E-03
   9    9.997       8.958       7.910       6.846       5.760       4.650       3.515       2.358       1.185      3.9381E-03
  10    9.997       8.958       7.910       6.846       5.760       4.650       3.515       2.358       1.185      3.9381E-03

 HEAD WILL BE SAVED ON UNIT   51 AT END OF TIME STEP   30, STRESS PERIOD    2

 DRAWDOWN WILL BE SAVED ON UNIT   52 AT END OF TIME STEP   30, STRESS PERIOD    2
1
  VOLUMETRIC BUDGET FOR ENTIRE MODEL AT END OF TIME STEP   30, STRESS PERIOD   2
  ------------------------------------------------------------------------------

     CUMULATIVE VOLUMES      L**3       RATES FOR THIS TIME STEP      L**3/T
     ------------------                 ------------------------

           IN:                                      IN:
           ---                                      ---
             STORAGE =       24408.5957               STORAGE =          71.0480
       CONSTANT HEAD =           0.0000         CONSTANT HEAD =           0.0000
               WELLS =           0.0000                 WELLS =           0.0000
       RIVER LEAKAGE =        9534.3936         RIVER LEAKAGE =         519.6691

            TOTAL IN =       33942.9883              TOTAL IN =         590.7171

          OUT:                                     OUT:
          ----                                     ----
             STORAGE =           0.0000               STORAGE =           0.0000
       CONSTANT HEAD =           0.0000         CONSTANT HEAD =           0.0000
               WELLS =           0.0000                 WELLS =           0.0000
       RIVER LEAKAGE =       33944.5508         RIVER LEAKAGE =         590.7130

           TOTAL OUT =       33944.5508             TOTAL OUT =         590.7130

            IN - OUT =          -1.5625              IN - OUT =       4.1504E-03

 PERCENT DISCREPANCY =          -0.00     PERCENT DISCREPANCY =           0.00






         TIME SUMMARY AT END OF TIME STEP   30 IN STRESS PERIOD    2
                    SECONDS     MINUTES      HOURS       DAYS        YEARS
                    -----------------------------------------------------------
   TIME STEP LENGTH  86400.      1440.0      24.000      1.0000     2.73785E-03
 STRESS PERIOD TIME 2.59200E+06  43200.      720.00      30.000     8.21355E-02
         TOTAL TIME 2.67840E+06  44640.      744.00      31.000     8.48734E-02
1

 SOLVING FOR HEAD 

 OUTPUT CONTROL FOR STRESS PERIOD    2   TIME STEP   31
    SAVE HEAD FOR ALL LAYERS
    SAVE DRAWDOWN FOR ALL LAYERS
    SAVE BUDGET
    PRINT HEAD FOR ALL LAYERS
    PRINT BUDGET
 UBDSV1 SAVING "         STORAGE" ON UNIT  53 AT TIME STEP 31, STRESS PERIOD   2
 UBDSV2 SAVING "   CONSTANT HEAD" ON UNIT  53 AT TIME STEP 31, STRESS PERIOD   2
 UBDSV1 SAVING "FLOW RIGHT FACE " ON UNIT  53 AT TIME STEP 31, STRESS PERIOD   2
 UBDSV1 SAVING "FLOW FRONT FACE " ON UNIT  53 AT TIME STEP 31, STRESS PERIOD   2
 UBDSV1 SAVING "FLOW LOWER FACE " ON UNIT  53 AT TIME STEP 31, STRESS PERIOD   2
1
              HEAD IN LAYER   1 AT END OF TIME STEP  31 IN STRESS PERIOD    2
  ---------------------------------------------------------------------------

            1           2           3           4           5           6           7           8           9          10
 ........................................................................................................................
   1    9.997       8.950       7.895       6.826       5.738       4.628       3.495       2.344       1.178      3.9126E-03
   2    9.997       8.950       7.895       6.826       5.738       4.628       3.495       2.344       1.178      3.9126E-03
   3    9.997       8.950       7.895       6.826       5.738       4.628       3.495       2.344       1.178      3.9126E-03
   4    9.997       8.950       7.895       6.826       5.738       4.628       3.495       2.344       1.178      3.9126E-03
   5    9.997       8.950       7.895       6.826       5.738       4.628       3.495       2.344       1.178      3.9126E-03
   6    9.997       8.950       7.895       6.826       5.738       4.628       3.495       2.344       1.178      3.9126E-03
   7    9.997       8.950       7.895       6.826       5.738       4.628       3.495       2.344       1.178      3.9126E-03
   8    9.997       8.950       7.895       6.826       5.738       4.628       3.495       2.344       1.178      3.9126E-03
   9    9.997       8.950       7.895       6.826       5.738       4.628       3.495       2.344       1.178      3.9126E-03
  10    9.997       8.950       7.895       6.826       5.738       4.628       3.495       2.344       1.178      3.9126E-03
1
              HEAD IN LAYER   2 AT END OF TIME STEP  31 IN STRESS PERIOD    2
  ---------------------------------------------------------------------------

            1           2           3           4           5           6           7           8           9          10
 ........................................................................................................................
   1    9.997       8.950       7.895       6.826       5.738       4.628       3.495       2.344       1.178      3.9126E-03
   2    9.997       8.950       7.895       6.826       5.738       4.628       3.495       2.344       1.178      3.9126E-03
   3    9.997       8.950       7.895       6.826       5.738       4.628       3.495       2.344       1.178      3.9126E-03
   4    9.997       8.950       7.895       6.826       5.738       4.628       3.495       2.344       1.178      3.9126E-03
   5    9.997       8.950       7.895       6.826       5.738       4.628       3.495       2.344       1.178      3.9126E-03
   6    9.997       8.950       7.895       6.826       5.738       4.628       3.495       2.344       1.178      3.9126E-03
   7    9.997       8.950       7.895       6.826       5.738       4.628       3.495       2.344       1.178      3.9126E-03
   8    9.997       8.950       7.895       6.826       5.738       4.628       3.495       2.344       1.178      3.9126E-03
   9    9.997       8.950       7.895       6.826       5.738       4.628       3.495       2.344       1.178      3.9126E-03
  10    9.997       8.950       7.895       6.826       5.738       4.628       3.495       2.344       1.178      3.9126E-03
1
              HEAD IN LAYER   3 AT END OF TIME STEP  31 IN STRESS PERIOD    2
  ---------------------------------------------------------------------------

            1           2           3           4           5           6           7           8           9          10
 ........................................................................................................................
   1    9.997       8.950       7.895       6.826       5.738       4.628       3.495       2.344       1.178      3.9126E-03
   2    9.997       8.950       7.895       6.826       5.738       4.628       3.495       2.344       1.178      3.9126E-03
   3    9.997       8.950       7.895       6.826       5.738       4.628       3.495       2.344       1.178      3.9126E-03
   4    9.997       8.950       7.895       6.826       5.738       4.628       3.495       2.344       1.178      3.9126E-03
   5    9.997       8.950       7.895       6.826       5.738       4.628       3.495       2.344       1.178      3.9126E-03
   6    9.997       8.950       7.895       6.826       5.738       4.628       3.495       2.344       1.178      3.9126E-03
   7    9.997       8.950       7.895       6.826       5.738       4.628       3.495       2.344       1.178      3.9126E-03
   8    9.997       8.950       7.895       6.826       5.738       4.628       3.495       2.344       1.178      3.9126E-03
   9    9.997       8.950       7.895       6.826       5.738       4.628       3.495       2.344       1.178      3.9126E-03
  10    9.997       8.950       7.895       6.826       5.738       4.628       3.495       2.344       1.178      3.9126E-03

 HEAD WILL BE SAVED ON UNIT   51 AT END OF TIME STEP   31, STRESS PERIOD    2

 DRAWDOWN WILL BE SAVED ON UNIT   52 AT END OF TIME STEP   31, STRESS PERIOD    2
1
  VOLUMETRIC BUDGET FOR ENTIRE MODEL AT END OF TIME STEP   31, STRESS PERIOD   2
  ------------------------------------------------------------------------------

     CUMULATIVE VOLUMES      L**3       RATES FOR THIS TIME STEP      L**3/T
     ------------------                 ------------------------

           IN:                                      IN:
           ---                                      ---
             STORAGE =       24472.0039               STORAGE =          63.4091
       CONSTANT HEAD =           0.0000         CONSTANT HEAD =           0.0000
               WELLS =           0.0000                 WELLS =           0.0000
       RIVER LEAKAGE =       10057.8672         RIVER LEAKAGE =         523.4732

            TOTAL IN =       34529.8711              TOTAL IN =         586.8823

          OUT:                                     OUT:
          ----                                     ----
             STORAGE =           0.0000               STORAGE =           0.0000
       CONSTANT HEAD =           0.0000         CONSTANT HEAD =           0.0000
               WELLS =           0.0000                 WELLS =           0.0000
       RIVER LEAKAGE =       34531.4414         RIVER LEAKAGE =         586.8903

           TOTAL OUT =       34531.4414             TOTAL OUT =         586.8903

            IN - OUT =          -1.5703              IN - OUT =      -7.9346E-03

 PERCENT DISCREPANCY =          -0.00     PERCENT DISCREPANCY =          -0.00






         TIME SUMMARY AT END OF TIME STEP   31 IN STRESS PERIOD    2
                    SECONDS     MINUTES      HOURS       DAYS        YEARS
                    -----------------------------------------------------------
   TIME STEP LENGTH  86400.      1440.0      24.000      1.0000     2.73785E-03
 STRESS PERIOD TIME 2.67840E+06  44640.      744.00      31.000     8.48734E-02
         TOTAL TIME 2.76480E+06  46080.      768.00      32.000     8.76112E-02
1

 SOLVING FOR HEAD 

 OUTPUT CONTROL FOR STRESS PERIOD    2   TIME STEP   32
    SAVE HEAD FOR ALL LAYERS
    SAVE DRAWDOWN FOR ALL LAYERS
    SAVE BUDGET
    PRINT HEAD FOR ALL LAYERS
    PRINT BUDGET
 UBDSV1 SAVING "         STORAGE" ON UNIT  53 AT TIME STEP 32, STRESS PERIOD   2
 UBDSV2 SAVING "   CONSTANT HEAD" ON UNIT  53 AT TIME STEP 32, STRESS PERIOD   2
 UBDSV1 SAVING "FLOW RIGHT FACE " ON UNIT  53 AT TIME STEP 32, STRESS PERIOD   2
 UBDSV1 SAVING "FLOW FRONT FACE " ON UNIT  53 AT TIME STEP 32, STRESS PERIOD   2
 UBDSV1 SAVING "FLOW LOWER FACE " ON UNIT  53 AT TIME STEP 32, STRESS PERIOD   2
1
              HEAD IN LAYER   1 AT END OF TIME STEP  32 IN STRESS PERIOD    2
  ---------------------------------------------------------------------------

            1           2           3           4           5           6           7           8           9          10
 ........................................................................................................................
   1    9.997       8.943       7.883       6.809       5.719       4.608       3.478       2.331       1.171      3.8899E-03
   2    9.997       8.943       7.883       6.809       5.719       4.608       3.478       2.331       1.171      3.8899E-03
   3    9.997       8.943       7.883       6.809       5.719       4.608       3.478       2.331       1.171      3.8899E-03
   4    9.997       8.943       7.883       6.809       5.719       4.608       3.478       2.331       1.171      3.8899E-03
   5    9.997       8.943       7.883       6.809       5.719       4.608       3.478       2.331       1.171      3.8899E-03
   6    9.997       8.943       7.883       6.809       5.719       4.608       3.478       2.331       1.171      3.8899E-03
   7    9.997       8.943       7.883       6.809       5.719       4.608       3.478       2.331       1.171      3.8899E-03
   8    9.997       8.943       7.883       6.809       5.719       4.608       3.478       2.331       1.171      3.8899E-03
   9    9.997       8.943       7.883       6.809       5.719       4.608       3.478       2.331       1.171      3.8899E-03
  10    9.997       8.943       7.883       6.809       5.719       4.608       3.478       2.331       1.171      3.8899E-03
1
              HEAD IN LAYER   2 AT END OF TIME STEP  32 IN STRESS PERIOD    2
  ---------------------------------------------------------------------------

            1           2           3           4           5           6           7           8           9          10
 ........................................................................................................................
   1    9.997       8.943       7.883       6.809       5.719       4.608       3.478       2.331       1.171      3.8899E-03
   2    9.997       8.943       7.883       6.809       5.719       4.608       3.478       2.331       1.171      3.8899E-03
   3    9.997       8.943       7.883       6.809       5.719       4.608       3.478       2.331       1.171      3.8899E-03
   4    9.997       8.943       7.883       6.809       5.719       4.608       3.478       2.331       1.171      3.8899E-03
   5    9.997       8.943       7.883       6.809       5.719       4.608       3.478       2.331       1.171      3.8899E-03
   6    9.997       8.943       7.883       6.809       5.719       4.608       3.478       2.331       1.171      3.8899E-03
   7    9.997       8.943       7.883       6.809       5.719       4.608       3.478       2.331       1.171      3.8899E-03
   8    9.997       8.943       7.883       6.809       5.719       4.608       3.478       2.331       1.171      3.8899E-03
   9    9.997       8.943       7.883       6.809       5.719       4.608       3.478       2.331       1.171      3.8899E-03
  10    9.997       8.943       7.883       6.809       5.719       4.608       3.478       2.331       1.171      3.8899E-03
1
              HEAD IN LAYER   3 AT END OF TIME STEP  32 IN STRESS PERIOD    2
  ---------------------------------------------------------------------------

            1           2           3           4           5           6           7           8           9          10
 ........................................................................................................................
   1    9.997       8.943       7.883       6.809       5.719       4.608       3.478       2.331       1.171      3.8899E-03
   2    9.997       8.943       7.883       6.809       5.719       4.608       3.478       2.331       1.171      3.8899E-03
   3    9.997       8.943       7.883       6.809       5.719       4.608       3.478       2.331       1.171      3.8899E-03
   4    9.997       8.943       7.883       6.809       5.719       4.608       3.478       2.331       1.171      3.8899E-03
   5    9.997       8.943       7.883       6.809       5.719       4.608       3.478       2.331       1.171      3.8899E-03
   6    9.997       8.943       7.883       6.809       5.719       4.608       3.478       2.331       1.171      3.8899E-03
   7    9.997       8.943       7.883       6.809       5.719       4.608       3.478       2.331       1.171      3.8899E-03
   8    9.997       8.943       7.883       6.809       5.719       4.608       3.478       2.331       1.171      3.8899E-03
   9    9.997       8.943       7.883       6.809       5.719       4.608       3.478       2.331       1.171      3.8899E-03
  10    9.997       8.943       7.883       6.809       5.719       4.608       3.478       2.331       1.171      3.8899E-03

 HEAD WILL BE SAVED ON UNIT   51 AT END OF TIME STEP   32, STRESS PERIOD    2

 DRAWDOWN WILL BE SAVED ON UNIT   52 AT END OF TIME STEP   32, STRESS PERIOD    2
1
  VOLUMETRIC BUDGET FOR ENTIRE MODEL AT END OF TIME STEP   32, STRESS PERIOD   2
  ------------------------------------------------------------------------------

     CUMULATIVE VOLUMES      L**3       RATES FOR THIS TIME STEP      L**3/T
     ------------------                 ------------------------

           IN:                                      IN:
           ---                                      ---
             STORAGE =       24528.5957               STORAGE =          56.5919
       CONSTANT HEAD =           0.0000         CONSTANT HEAD =           0.0000
               WELLS =           0.0000                 WELLS =           0.0000
       RIVER LEAKAGE =       10584.7363         RIVER LEAKAGE =         526.8690

            TOTAL IN =       35113.3320              TOTAL IN =         583.4609

          OUT:                                     OUT:
          ----                                     ----
             STORAGE =           0.0000               STORAGE =           0.0000
       CONSTANT HEAD =           0.0000         CONSTANT HEAD =           0.0000
               WELLS =           0.0000                 WELLS =           0.0000
       RIVER LEAKAGE =       35114.9219         RIVER LEAKAGE =         583.4797

           TOTAL OUT =       35114.9219             TOTAL OUT =         583.4797

            IN - OUT =          -1.5898              IN - OUT =      -1.8860E-02

 PERCENT DISCREPANCY =          -0.00     PERCENT DISCREPANCY =          -0.00






         TIME SUMMARY AT END OF TIME STEP   32 IN STRESS PERIOD    2
                    SECONDS     MINUTES      HOURS       DAYS        YEARS
                    -----------------------------------------------------------
   TIME STEP LENGTH  86400.      1440.0      24.000      1.0000     2.73785E-03
 STRESS PERIOD TIME 2.76480E+06  46080.      768.00      32.000     8.76112E-02
         TOTAL TIME 2.85120E+06  47520.      792.00      33.000     9.03491E-02
1

 SOLVING FOR HEAD 

 OUTPUT CONTROL FOR STRESS PERIOD    2   TIME STEP   33
    SAVE HEAD FOR ALL LAYERS
    SAVE DRAWDOWN FOR ALL LAYERS
    SAVE BUDGET
    PRINT HEAD FOR ALL LAYERS
    PRINT BUDGET
 UBDSV1 SAVING "         STORAGE" ON UNIT  53 AT TIME STEP 33, STRESS PERIOD   2
 UBDSV2 SAVING "   CONSTANT HEAD" ON UNIT  53 AT TIME STEP 33, STRESS PERIOD   2
 UBDSV1 SAVING "FLOW RIGHT FACE " ON UNIT  53 AT TIME STEP 33, STRESS PERIOD   2
 UBDSV1 SAVING "FLOW FRONT FACE " ON UNIT  53 AT TIME STEP 33, STRESS PERIOD   2
 UBDSV1 SAVING "FLOW LOWER FACE " ON UNIT  53 AT TIME STEP 33, STRESS PERIOD   2
1
              HEAD IN LAYER   1 AT END OF TIME STEP  33 IN STRESS PERIOD    2
  ---------------------------------------------------------------------------

            1           2           3           4           5           6           7           8           9          10
 ........................................................................................................................
   1    9.997       8.937       7.871       6.794       5.701       4.591       3.463       2.319       1.165      3.8696E-03
   2    9.997       8.937       7.871       6.794       5.701       4.591       3.463       2.319       1.165      3.8696E-03
   3    9.997       8.937       7.871       6.794       5.701       4.591       3.463       2.319       1.165      3.8696E-03
   4    9.997       8.937       7.871       6.794       5.701       4.591       3.463       2.319       1.165      3.8696E-03
   5    9.997       8.937       7.871       6.794       5.701       4.591       3.463       2.319       1.165      3.8696E-03
   6    9.997       8.937       7.871       6.794       5.701       4.591       3.463       2.319       1.165      3.8696E-03
   7    9.997       8.937       7.871       6.794       5.701       4.591       3.463       2.319       1.165      3.8696E-03
   8    9.997       8.937       7.871       6.794       5.701       4.591       3.463       2.319       1.165      3.8696E-03
   9    9.997       8.937       7.871       6.794       5.701       4.591       3.463       2.319       1.165      3.8696E-03
  10    9.997       8.937       7.871       6.794       5.701       4.591       3.463       2.319       1.165      3.8696E-03
1
              HEAD IN LAYER   2 AT END OF TIME STEP  33 IN STRESS PERIOD    2
  ---------------------------------------------------------------------------

            1           2           3           4           5           6           7           8           9          10
 ........................................................................................................................
   1    9.997       8.937       7.871       6.794       5.701       4.591       3.463       2.319       1.165      3.8696E-03
   2    9.997       8.937       7.871       6.794       5.701       4.591       3.463       2.319       1.165      3.8696E-03
   3    9.997       8.937       7.871       6.794       5.701       4.591       3.463       2.319       1.165      3.8696E-03
   4    9.997       8.937       7.871       6.794       5.701       4.591       3.463       2.319       1.165      3.8696E-03
   5    9.997       8.937       7.871       6.794       5.701       4.591       3.463       2.319       1.165      3.8696E-03
   6    9.997       8.937       7.871       6.794       5.701       4.591       3.463       2.319       1.165      3.8696E-03
   7    9.997       8.937       7.871       6.794       5.701       4.591       3.463       2.319       1.165      3.8696E-03
   8    9.997       8.937       7.871       6.794       5.701       4.591       3.463       2.319       1.165      3.8696E-03
   9    9.997       8.937       7.871       6.794       5.701       4.591       3.463       2.319       1.165      3.8696E-03
  10    9.997       8.937       7.871       6.794       5.701       4.591       3.463       2.319       1.165      3.8696E-03
1
              HEAD IN LAYER   3 AT END OF TIME STEP  33 IN STRESS PERIOD    2
  ---------------------------------------------------------------------------

            1           2           3           4           5           6           7           8           9          10
 ........................................................................................................................
   1    9.997       8.937       7.871       6.794       5.701       4.591       3.463       2.319       1.165      3.8696E-03
   2    9.997       8.937       7.871       6.794       5.701       4.591       3.463       2.319       1.165      3.8696E-03
   3    9.997       8.937       7.871       6.794       5.701       4.591       3.463       2.319       1.165      3.8696E-03
   4    9.997       8.937       7.871       6.794       5.701       4.591       3.463       2.319       1.165      3.8696E-03
   5    9.997       8.937       7.871       6.794       5.701       4.591       3.463       2.319       1.165      3.8696E-03
   6    9.997       8.937       7.871       6.794       5.701       4.591       3.463       2.319       1.165      3.8696E-03
   7    9.997       8.937       7.871       6.794       5.701       4.591       3.463       2.319       1.165      3.8696E-03
   8    9.997       8.937       7.871       6.794       5.701       4.591       3.463       2.319       1.165      3.8696E-03
   9    9.997       8.937       7.871       6.794       5.701       4.591       3.463       2.319       1.165      3.8696E-03
  10    9.997       8.937       7.871       6.794       5.701       4.591       3.463       2.319       1.165      3.8696E-03

 HEAD WILL BE SAVED ON UNIT   51 AT END OF TIME STEP   33, STRESS PERIOD    2

 DRAWDOWN WILL BE SAVED ON UNIT   52 AT END OF TIME STEP   33, STRESS PERIOD    2
1
  VOLUMETRIC BUDGET FOR ENTIRE MODEL AT END OF TIME STEP   33, STRESS PERIOD   2
  ------------------------------------------------------------------------------

     CUMULATIVE VOLUMES      L**3       RATES FOR THIS TIME STEP      L**3/T
     ------------------                 ------------------------

           IN:                                      IN:
           ---                                      ---
             STORAGE =       24579.1035               STORAGE =          50.5083
       CONSTANT HEAD =           0.0000         CONSTANT HEAD =           0.0000
               WELLS =           0.0000                 WELLS =           0.0000
       RIVER LEAKAGE =       11114.6367         RIVER LEAKAGE =         529.9000

            TOTAL IN =       35693.7422              TOTAL IN =         580.4083

          OUT:                                     OUT:
          ----                                     ----
             STORAGE =           0.0000               STORAGE =           0.0000
       CONSTANT HEAD =           0.0000         CONSTANT HEAD =           0.0000
               WELLS =           0.0000                 WELLS =           0.0000
       RIVER LEAKAGE =       35695.3594         RIVER LEAKAGE =         580.4359

           TOTAL OUT =       35695.3594             TOTAL OUT =         580.4359

            IN - OUT =          -1.6172              IN - OUT =      -2.7649E-02

 PERCENT DISCREPANCY =          -0.00     PERCENT DISCREPANCY =          -0.00






         TIME SUMMARY AT END OF TIME STEP   33 IN STRESS PERIOD    2
                    SECONDS     MINUTES      HOURS       DAYS        YEARS
                    -----------------------------------------------------------
   TIME STEP LENGTH  86400.      1440.0      24.000      1.0000     2.73785E-03
 STRESS PERIOD TIME 2.85120E+06  47520.      792.00      33.000     9.03491E-02
         TOTAL TIME 2.93760E+06  48960.      816.00      34.000     9.30869E-02
1

 SOLVING FOR HEAD 

 OUTPUT CONTROL FOR STRESS PERIOD    2   TIME STEP   34
    SAVE HEAD FOR ALL LAYERS
    SAVE DRAWDOWN FOR ALL LAYERS
    SAVE BUDGET
    PRINT HEAD FOR ALL LAYERS
    PRINT BUDGET
 UBDSV1 SAVING "         STORAGE" ON UNIT  53 AT TIME STEP 34, STRESS PERIOD   2
 UBDSV2 SAVING "   CONSTANT HEAD" ON UNIT  53 AT TIME STEP 34, STRESS PERIOD   2
 UBDSV1 SAVING "FLOW RIGHT FACE " ON UNIT  53 AT TIME STEP 34, STRESS PERIOD   2
 UBDSV1 SAVING "FLOW FRONT FACE " ON UNIT  53 AT TIME STEP 34, STRESS PERIOD   2
 UBDSV1 SAVING "FLOW LOWER FACE " ON UNIT  53 AT TIME STEP 34, STRESS PERIOD   2
1
              HEAD IN LAYER   1 AT END OF TIME STEP  34 IN STRESS PERIOD    2
  ---------------------------------------------------------------------------

            1           2           3           4           5           6           7           8           9          10
 ........................................................................................................................
   1    9.997       8.932       7.861       6.780       5.685       4.575       3.449       2.309       1.159      3.8515E-03
   2    9.997       8.932       7.861       6.780       5.685       4.575       3.449       2.309       1.159      3.8515E-03
   3    9.997       8.932       7.861       6.780       5.685       4.575       3.449       2.309       1.159      3.8515E-03
   4    9.997       8.932       7.861       6.780       5.685       4.575       3.449       2.309       1.159      3.8515E-03
   5    9.997       8.932       7.861       6.780       5.685       4.575       3.449       2.309       1.159      3.8515E-03
   6    9.997       8.932       7.861       6.780       5.685       4.575       3.449       2.309       1.159      3.8515E-03
   7    9.997       8.932       7.861       6.780       5.685       4.575       3.449       2.309       1.159      3.8515E-03
   8    9.997       8.932       7.861       6.780       5.685       4.575       3.449       2.309       1.159      3.8515E-03
   9    9.997       8.932       7.861       6.780       5.685       4.575       3.449       2.309       1.159      3.8515E-03
  10    9.997       8.932       7.861       6.780       5.685       4.575       3.449       2.309       1.159      3.8515E-03
1
              HEAD IN LAYER   2 AT END OF TIME STEP  34 IN STRESS PERIOD    2
  ---------------------------------------------------------------------------

            1           2           3           4           5           6           7           8           9          10
 ........................................................................................................................
   1    9.997       8.932       7.861       6.780       5.685       4.575       3.449       2.309       1.159      3.8515E-03
   2    9.997       8.932       7.861       6.780       5.685       4.575       3.449       2.309       1.159      3.8515E-03
   3    9.997       8.932       7.861       6.780       5.685       4.575       3.449       2.309       1.159      3.8515E-03
   4    9.997       8.932       7.861       6.780       5.685       4.575       3.449       2.309       1.159      3.8515E-03
   5    9.997       8.932       7.861       6.780       5.685       4.575       3.449       2.309       1.159      3.8515E-03
   6    9.997       8.932       7.861       6.780       5.685       4.575       3.449       2.309       1.159      3.8515E-03
   7    9.997       8.932       7.861       6.780       5.685       4.575       3.449       2.309       1.159      3.8515E-03
   8    9.997       8.932       7.861       6.780       5.685       4.575       3.449       2.309       1.159      3.8515E-03
   9    9.997       8.932       7.861       6.780       5.685       4.575       3.449       2.309       1.159      3.8515E-03
  10    9.997       8.932       7.861       6.780       5.685       4.575       3.449       2.309       1.159      3.8515E-03
1
              HEAD IN LAYER   3 AT END OF TIME STEP  34 IN STRESS PERIOD    2
  ---------------------------------------------------------------------------

            1           2           3           4           5           6           7           8           9          10
 ........................................................................................................................
   1    9.997       8.932       7.861       6.780       5.685       4.575       3.449       2.309       1.159      3.8515E-03
   2    9.997       8.932       7.861       6.780       5.685       4.575       3.449       2.309       1.159      3.8515E-03
   3    9.997       8.932       7.861       6.780       5.685       4.575       3.449       2.309       1.159      3.8515E-03
   4    9.997       8.932       7.861       6.780       5.685       4.575       3.449       2.309       1.159      3.8515E-03
   5    9.997       8.932       7.861       6.780       5.685       4.575       3.449       2.309       1.159      3.8515E-03
   6    9.997       8.932       7.861       6.780       5.685       4.575       3.449       2.309       1.159      3.8515E-03
   7    9.997       8.932       7.861       6.780       5.685       4.575       3.449       2.309       1.159      3.8515E-03
   8    9.997       8.932       7.861       6.780       5.685       4.575       3.449       2.309       1.159      3.8515E-03
   9    9.997       8.932       7.861       6.780       5.685       4.575       3.449       2.309       1.159      3.8515E-03
  10    9.997       8.932       7.861       6.780       5.685       4.575       3.449       2.309       1.159      3.8515E-03

 HEAD WILL BE SAVED ON UNIT   51 AT END OF TIME STEP   34, STRESS PERIOD    2

 DRAWDOWN WILL BE SAVED ON UNIT   52 AT END OF TIME STEP   34, STRESS PERIOD    2
1
  VOLUMETRIC BUDGET FOR ENTIRE MODEL AT END OF TIME STEP   34, STRESS PERIOD   2
  ------------------------------------------------------------------------------

     CUMULATIVE VOLUMES      L**3       RATES FOR THIS TIME STEP      L**3/T
     ------------------                 ------------------------

           IN:                                      IN:
           ---                                      ---
             STORAGE =       24624.1816               STORAGE =          45.0785
       CONSTANT HEAD =           0.0000         CONSTANT HEAD =           0.0000
               WELLS =           0.0000                 WELLS =           0.0000
       RIVER LEAKAGE =       11647.2422         RIVER LEAKAGE =         532.6056

            TOTAL IN =       36271.4219              TOTAL IN =         577.6841

          OUT:                                     OUT:
          ----                                     ----
             STORAGE =           0.0000               STORAGE =           0.0000
       CONSTANT HEAD =           0.0000         CONSTANT HEAD =           0.0000
               WELLS =           0.0000                 WELLS =           0.0000
       RIVER LEAKAGE =       36273.0781         RIVER LEAKAGE =         577.7202

           TOTAL OUT =       36273.0781             TOTAL OUT =         577.7202

            IN - OUT =          -1.6562              IN - OUT =      -3.6072E-02

 PERCENT DISCREPANCY =          -0.00     PERCENT DISCREPANCY =          -0.01






         TIME SUMMARY AT END OF TIME STEP   34 IN STRESS PERIOD    2
                    SECONDS     MINUTES      HOURS       DAYS        YEARS
                    -----------------------------------------------------------
   TIME STEP LENGTH  86400.      1440.0      24.000      1.0000     2.73785E-03
 STRESS PERIOD TIME 2.93760E+06  48960.      816.00      34.000     9.30869E-02
         TOTAL TIME 3.02400E+06  50400.      840.00      35.000     9.58248E-02
1

 SOLVING FOR HEAD 

 OUTPUT CONTROL FOR STRESS PERIOD    2   TIME STEP   35
    SAVE HEAD FOR ALL LAYERS
    SAVE DRAWDOWN FOR ALL LAYERS
    SAVE BUDGET
    PRINT HEAD FOR ALL LAYERS
    PRINT BUDGET
 UBDSV1 SAVING "         STORAGE" ON UNIT  53 AT TIME STEP 35, STRESS PERIOD   2
 UBDSV2 SAVING "   CONSTANT HEAD" ON UNIT  53 AT TIME STEP 35, STRESS PERIOD   2
 UBDSV1 SAVING "FLOW RIGHT FACE " ON UNIT  53 AT TIME STEP 35, STRESS PERIOD   2
 UBDSV1 SAVING "FLOW FRONT FACE " ON UNIT  53 AT TIME STEP 35, STRESS PERIOD   2
 UBDSV1 SAVING "FLOW LOWER FACE " ON UNIT  53 AT TIME STEP 35, STRESS PERIOD   2
1
              HEAD IN LAYER   1 AT END OF TIME STEP  35 IN STRESS PERIOD    2
  ---------------------------------------------------------------------------

            1           2           3           4           5           6           7           8           9          10
 ........................................................................................................................
   1    9.997       8.927       7.852       6.768       5.671       4.561       3.437       2.300       1.154      3.8353E-03
   2    9.997       8.927       7.852       6.768       5.671       4.561       3.437       2.300       1.154      3.8353E-03
   3    9.997       8.927       7.852       6.768       5.671       4.561       3.437       2.300       1.154      3.8353E-03
   4    9.997       8.927       7.852       6.768       5.671       4.561       3.437       2.300       1.154      3.8353E-03
   5    9.997       8.927       7.852       6.768       5.671       4.561       3.437       2.300       1.154      3.8353E-03
   6    9.997       8.927       7.852       6.768       5.671       4.561       3.437       2.300       1.154      3.8353E-03
   7    9.997       8.927       7.852       6.768       5.671       4.561       3.437       2.300       1.154      3.8353E-03
   8    9.997       8.927       7.852       6.768       5.671       4.561       3.437       2.300       1.154      3.8353E-03
   9    9.997       8.927       7.852       6.768       5.671       4.561       3.437       2.300       1.154      3.8353E-03
  10    9.997       8.927       7.852       6.768       5.671       4.561       3.437       2.300       1.154      3.8353E-03
1
              HEAD IN LAYER   2 AT END OF TIME STEP  35 IN STRESS PERIOD    2
  ---------------------------------------------------------------------------

            1           2           3           4           5           6           7           8           9          10
 ........................................................................................................................
   1    9.997       8.927       7.852       6.768       5.671       4.561       3.437       2.300       1.154      3.8353E-03
   2    9.997       8.927       7.852       6.768       5.671       4.561       3.437       2.300       1.154      3.8353E-03
   3    9.997       8.927       7.852       6.768       5.671       4.561       3.437       2.300       1.154      3.8353E-03
   4    9.997       8.927       7.852       6.768       5.671       4.561       3.437       2.300       1.154      3.8353E-03
   5    9.997       8.927       7.852       6.768       5.671       4.561       3.437       2.300       1.154      3.8353E-03
   6    9.997       8.927       7.852       6.768       5.671       4.561       3.437       2.300       1.154      3.8353E-03
   7    9.997       8.927       7.852       6.768       5.671       4.561       3.437       2.300       1.154      3.8353E-03
   8    9.997       8.927       7.852       6.768       5.671       4.561       3.437       2.300       1.154      3.8353E-03
   9    9.997       8.927       7.852       6.768       5.671       4.561       3.437       2.300       1.154      3.8353E-03
  10    9.997       8.927       7.852       6.768       5.671       4.561       3.437       2.300       1.154      3.8353E-03
1
              HEAD IN LAYER   3 AT END OF TIME STEP  35 IN STRESS PERIOD    2
  ---------------------------------------------------------------------------

            1           2           3           4           5           6           7           8           9          10
 ........................................................................................................................
   1    9.997       8.927       7.852       6.768       5.671       4.561       3.437       2.300       1.154      3.8353E-03
   2    9.997       8.927       7.852       6.768       5.671       4.561       3.437       2.300       1.154      3.8353E-03
   3    9.997       8.927       7.852       6.768       5.671       4.561       3.437       2.300       1.154      3.8353E-03
   4    9.997       8.927       7.852       6.768       5.671       4.561       3.437       2.300       1.154      3.8353E-03
   5    9.997       8.927       7.852       6.768       5.671       4.561       3.437       2.300       1.154      3.8353E-03
   6    9.997       8.927       7.852       6.768       5.671       4.561       3.437       2.300       1.154      3.8353E-03
   7    9.997       8.927       7.852       6.768       5.671       4.561       3.437       2.300       1.154      3.8353E-03
   8    9.997       8.927       7.852       6.768       5.671       4.561       3.437       2.300       1.154      3.8353E-03
   9    9.997       8.927       7.852       6.768       5.671       4.561       3.437       2.300       1.154      3.8353E-03
  10    9.997       8.927       7.852       6.768       5.671       4.561       3.437       2.300       1.154      3.8353E-03

 HEAD WILL BE SAVED ON UNIT   51 AT END OF TIME STEP   35, STRESS PERIOD    2

 DRAWDOWN WILL BE SAVED ON UNIT   52 AT END OF TIME STEP   35, STRESS PERIOD    2
1
  VOLUMETRIC BUDGET FOR ENTIRE MODEL AT END OF TIME STEP   35, STRESS PERIOD   2
  ------------------------------------------------------------------------------

     CUMULATIVE VOLUMES      L**3       RATES FOR THIS TIME STEP      L**3/T
     ------------------                 ------------------------

           IN:                                      IN:
           ---                                      ---
             STORAGE =       24664.4141               STORAGE =          40.2322
       CONSTANT HEAD =           0.0000         CONSTANT HEAD =           0.0000
               WELLS =           0.0000                 WELLS =           0.0000
       RIVER LEAKAGE =       12182.2627         RIVER LEAKAGE =         535.0208

            TOTAL IN =       36846.6758              TOTAL IN =         575.2529

          OUT:                                     OUT:
          ----                                     ----
             STORAGE =           0.0000               STORAGE =           0.0000
       CONSTANT HEAD =           0.0000         CONSTANT HEAD =           0.0000
               WELLS =           0.0000                 WELLS =           0.0000
       RIVER LEAKAGE =       36848.3750         RIVER LEAKAGE =         575.2969

           TOTAL OUT =       36848.3750             TOTAL OUT =         575.2969

            IN - OUT =          -1.6992              IN - OUT =      -4.3945E-02

 PERCENT DISCREPANCY =          -0.00     PERCENT DISCREPANCY =          -0.01






         TIME SUMMARY AT END OF TIME STEP   35 IN STRESS PERIOD    2
                    SECONDS     MINUTES      HOURS       DAYS        YEARS
                    -----------------------------------------------------------
   TIME STEP LENGTH  86400.      1440.0      24.000      1.0000     2.73785E-03
 STRESS PERIOD TIME 3.02400E+06  50400.      840.00      35.000     9.58248E-02
         TOTAL TIME 3.11040E+06  51840.      864.00      36.000     9.85626E-02
1

 SOLVING FOR HEAD 

 OUTPUT CONTROL FOR STRESS PERIOD    2   TIME STEP   36
    SAVE HEAD FOR ALL LAYERS
    SAVE DRAWDOWN FOR ALL LAYERS
    SAVE BUDGET
    PRINT HEAD FOR ALL LAYERS
    PRINT BUDGET
 UBDSV1 SAVING "         STORAGE" ON UNIT  53 AT TIME STEP 36, STRESS PERIOD   2
 UBDSV2 SAVING "   CONSTANT HEAD" ON UNIT  53 AT TIME STEP 36, STRESS PERIOD   2
 UBDSV1 SAVING "FLOW RIGHT FACE " ON UNIT  53 AT TIME STEP 36, STRESS PERIOD   2
 UBDSV1 SAVING "FLOW FRONT FACE " ON UNIT  53 AT TIME STEP 36, STRESS PERIOD   2
 UBDSV1 SAVING "FLOW LOWER FACE " ON UNIT  53 AT TIME STEP 36, STRESS PERIOD   2
1
              HEAD IN LAYER   1 AT END OF TIME STEP  36 IN STRESS PERIOD    2
  ---------------------------------------------------------------------------

            1           2           3           4           5           6           7           8           9          10
 ........................................................................................................................
   1    9.997       8.923       7.844       6.757       5.659       4.549       3.426       2.292       1.150      3.8209E-03
   2    9.997       8.923       7.844       6.757       5.659       4.549       3.426       2.292       1.150      3.8209E-03
   3    9.997       8.923       7.844       6.757       5.659       4.549       3.426       2.292       1.150      3.8209E-03
   4    9.997       8.923       7.844       6.757       5.659       4.549       3.426       2.292       1.150      3.8209E-03
   5    9.997       8.923       7.844       6.757       5.659       4.549       3.426       2.292       1.150      3.8209E-03
   6    9.997       8.923       7.844       6.757       5.659       4.549       3.426       2.292       1.150      3.8209E-03
   7    9.997       8.923       7.844       6.757       5.659       4.549       3.426       2.292       1.150      3.8209E-03
   8    9.997       8.923       7.844       6.757       5.659       4.549       3.426       2.292       1.150      3.8209E-03
   9    9.997       8.923       7.844       6.757       5.659       4.549       3.426       2.292       1.150      3.8209E-03
  10    9.997       8.923       7.844       6.757       5.659       4.549       3.426       2.292       1.150      3.8209E-03
1
              HEAD IN LAYER   2 AT END OF TIME STEP  36 IN STRESS PERIOD    2
  ---------------------------------------------------------------------------

            1           2           3           4           5           6           7           8           9          10
 ........................................................................................................................
   1    9.997       8.923       7.844       6.757       5.659       4.549       3.426       2.292       1.150      3.8209E-03
   2    9.997       8.923       7.844       6.757       5.659       4.549       3.426       2.292       1.150      3.8209E-03
   3    9.997       8.923       7.844       6.757       5.659       4.549       3.426       2.292       1.150      3.8209E-03
   4    9.997       8.923       7.844       6.757       5.659       4.549       3.426       2.292       1.150      3.8209E-03
   5    9.997       8.923       7.844       6.757       5.659       4.549       3.426       2.292       1.150      3.8209E-03
   6    9.997       8.923       7.844       6.757       5.659       4.549       3.426       2.292       1.150      3.8209E-03
   7    9.997       8.923       7.844       6.757       5.659       4.549       3.426       2.292       1.150      3.8209E-03
   8    9.997       8.923       7.844       6.757       5.659       4.549       3.426       2.292       1.150      3.8209E-03
   9    9.997       8.923       7.844       6.757       5.659       4.549       3.426       2.292       1.150      3.8209E-03
  10    9.997       8.923       7.844       6.757       5.659       4.549       3.426       2.292       1.150      3.8209E-03
1
              HEAD IN LAYER   3 AT END OF TIME STEP  36 IN STRESS PERIOD    2
  ---------------------------------------------------------------------------

            1           2           3           4           5           6           7           8           9          10
 ........................................................................................................................
   1    9.997       8.923       7.844       6.757       5.659       4.549       3.426       2.292       1.150      3.8209E-03
   2    9.997       8.923       7.844       6.757       5.659       4.549       3.426       2.292       1.150      3.8209E-03
   3    9.997       8.923       7.844       6.757       5.659       4.549       3.426       2.292       1.150      3.8209E-03
   4    9.997       8.923       7.844       6.757       5.659       4.549       3.426       2.292       1.150      3.8209E-03
   5    9.997       8.923       7.844       6.757       5.659       4.549       3.426       2.292       1.150      3.8209E-03
   6    9.997       8.923       7.844       6.757       5.659       4.549       3.426       2.292       1.150      3.8209E-03
   7    9.997       8.923       7.844       6.757       5.659       4.549       3.426       2.292       1.150      3.8209E-03
   8    9.997       8.923       7.844       6.757       5.659       4.549       3.426       2.292       1.150      3.8209E-03
   9    9.997       8.923       7.844       6.757       5.659       4.549       3.426       2.292       1.150      3.8209E-03
  10    9.997       8.923       7.844       6.757       5.659       4.549       3.426       2.292       1.150      3.8209E-03

 HEAD WILL BE SAVED ON UNIT   51 AT END OF TIME STEP   36, STRESS PERIOD    2

 DRAWDOWN WILL BE SAVED ON UNIT   52 AT END OF TIME STEP   36, STRESS PERIOD    2
1
  VOLUMETRIC BUDGET FOR ENTIRE MODEL AT END OF TIME STEP   36, STRESS PERIOD   2
  ------------------------------------------------------------------------------

     CUMULATIVE VOLUMES      L**3       RATES FOR THIS TIME STEP      L**3/T
     ------------------                 ------------------------

           IN:                                      IN:
           ---                                      ---
             STORAGE =       24700.3203               STORAGE =          35.9058
       CONSTANT HEAD =           0.0000         CONSTANT HEAD =           0.0000
               WELLS =           0.0000                 WELLS =           0.0000
       RIVER LEAKAGE =       12719.4385         RIVER LEAKAGE =         537.1761

            TOTAL IN =       37419.7578              TOTAL IN =         573.0819

          OUT:                                     OUT:
          ----                                     ----
             STORAGE =           0.0000               STORAGE =           0.0000
       CONSTANT HEAD =           0.0000         CONSTANT HEAD =           0.0000
               WELLS =           0.0000                 WELLS =           0.0000
       RIVER LEAKAGE =       37421.5078         RIVER LEAKAGE =         573.1326

           TOTAL OUT =       37421.5078             TOTAL OUT =         573.1326

            IN - OUT =          -1.7500              IN - OUT =      -5.0659E-02

 PERCENT DISCREPANCY =          -0.00     PERCENT DISCREPANCY =          -0.01






         TIME SUMMARY AT END OF TIME STEP   36 IN STRESS PERIOD    2
                    SECONDS     MINUTES      HOURS       DAYS        YEARS
                    -----------------------------------------------------------
   TIME STEP LENGTH  86400.      1440.0      24.000      1.0000     2.73785E-03
 STRESS PERIOD TIME 3.11040E+06  51840.      864.00      36.000     9.85626E-02
         TOTAL TIME 3.19680E+06  53280.      888.00      37.000     0.10130    
1

 SOLVING FOR HEAD 

 OUTPUT CONTROL FOR STRESS PERIOD    2   TIME STEP   37
    SAVE HEAD FOR ALL LAYERS
    SAVE DRAWDOWN FOR ALL LAYERS
    SAVE BUDGET
    PRINT HEAD FOR ALL LAYERS
    PRINT BUDGET
 UBDSV1 SAVING "         STORAGE" ON UNIT  53 AT TIME STEP 37, STRESS PERIOD   2
 UBDSV2 SAVING "   CONSTANT HEAD" ON UNIT  53 AT TIME STEP 37, STRESS PERIOD   2
 UBDSV1 SAVING "FLOW RIGHT FACE " ON UNIT  53 AT TIME STEP 37, STRESS PERIOD   2
 UBDSV1 SAVING "FLOW FRONT FACE " ON UNIT  53 AT TIME STEP 37, STRESS PERIOD   2
 UBDSV1 SAVING "FLOW LOWER FACE " ON UNIT  53 AT TIME STEP 37, STRESS PERIOD   2
1
              HEAD IN LAYER   1 AT END OF TIME STEP  37 IN STRESS PERIOD    2
  ---------------------------------------------------------------------------

            1           2           3           4           5           6           7           8           9          10
 ........................................................................................................................
   1    9.997       8.919       7.836       6.747       5.648       4.537       3.416       2.285       1.146      3.8080E-03
   2    9.997       8.919       7.836       6.747       5.648       4.537       3.416       2.285       1.146      3.8080E-03
   3    9.997       8.919       7.836       6.747       5.648       4.537       3.416       2.285       1.146      3.8080E-03
   4    9.997       8.919       7.836       6.747       5.648       4.537       3.416       2.285       1.146      3.8080E-03
   5    9.997       8.919       7.836       6.747       5.648       4.537       3.416       2.285       1.146      3.8080E-03
   6    9.997       8.919       7.836       6.747       5.648       4.537       3.416       2.285       1.146      3.8080E-03
   7    9.997       8.919       7.836       6.747       5.648       4.537       3.416       2.285       1.146      3.8080E-03
   8    9.997       8.919       7.836       6.747       5.648       4.537       3.416       2.285       1.146      3.8080E-03
   9    9.997       8.919       7.836       6.747       5.648       4.537       3.416       2.285       1.146      3.8080E-03
  10    9.997       8.919       7.836       6.747       5.648       4.537       3.416       2.285       1.146      3.8080E-03
1
              HEAD IN LAYER   2 AT END OF TIME STEP  37 IN STRESS PERIOD    2
  ---------------------------------------------------------------------------

            1           2           3           4           5           6           7           8           9          10
 ........................................................................................................................
   1    9.997       8.919       7.836       6.747       5.648       4.537       3.416       2.285       1.146      3.8080E-03
   2    9.997       8.919       7.836       6.747       5.648       4.537       3.416       2.285       1.146      3.8080E-03
   3    9.997       8.919       7.836       6.747       5.648       4.537       3.416       2.285       1.146      3.8080E-03
   4    9.997       8.919       7.836       6.747       5.648       4.537       3.416       2.285       1.146      3.8080E-03
   5    9.997       8.919       7.836       6.747       5.648       4.537       3.416       2.285       1.146      3.8080E-03
   6    9.997       8.919       7.836       6.747       5.648       4.537       3.416       2.285       1.146      3.8080E-03
   7    9.997       8.919       7.836       6.747       5.648       4.537       3.416       2.285       1.146      3.8080E-03
   8    9.997       8.919       7.836       6.747       5.648       4.537       3.416       2.285       1.146      3.8080E-03
   9    9.997       8.919       7.836       6.747       5.648       4.537       3.416       2.285       1.146      3.8080E-03
  10    9.997       8.919       7.836       6.747       5.648       4.537       3.416       2.285       1.146      3.8080E-03
1
              HEAD IN LAYER   3 AT END OF TIME STEP  37 IN STRESS PERIOD    2
  ---------------------------------------------------------------------------

            1           2           3           4           5           6           7           8           9          10
 ........................................................................................................................
   1    9.997       8.919       7.836       6.747       5.648       4.537       3.416       2.285       1.146      3.8080E-03
   2    9.997       8.919       7.836       6.747       5.648       4.537       3.416       2.285       1.146      3.8080E-03
   3    9.997       8.919       7.836       6.747       5.648       4.537       3.416       2.285       1.146      3.8080E-03
   4    9.997       8.919       7.836       6.747       5.648       4.537       3.416       2.285       1.146      3.8080E-03
   5    9.997       8.919       7.836       6.747       5.648       4.537       3.416       2.285       1.146      3.8080E-03
   6    9.997       8.919       7.836       6.747       5.648       4.537       3.416       2.285       1.146      3.8080E-03
   7    9.997       8.919       7.836       6.747       5.648       4.537       3.416       2.285       1.146      3.8080E-03
   8    9.997       8.919       7.836       6.747       5.648       4.537       3.416       2.285       1.146      3.8080E-03
   9    9.997       8.919       7.836       6.747       5.648       4.537       3.416       2.285       1.146      3.8080E-03
  10    9.997       8.919       7.836       6.747       5.648       4.537       3.416       2.285       1.146      3.8080E-03

 HEAD WILL BE SAVED ON UNIT   51 AT END OF TIME STEP   37, STRESS PERIOD    2

 DRAWDOWN WILL BE SAVED ON UNIT   52 AT END OF TIME STEP   37, STRESS PERIOD    2
1
  VOLUMETRIC BUDGET FOR ENTIRE MODEL AT END OF TIME STEP   37, STRESS PERIOD   2
  ------------------------------------------------------------------------------

     CUMULATIVE VOLUMES      L**3       RATES FOR THIS TIME STEP      L**3/T
     ------------------                 ------------------------

           IN:                                      IN:
           ---                                      ---
             STORAGE =       24732.3672               STORAGE =          32.0464
       CONSTANT HEAD =           0.0000         CONSTANT HEAD =           0.0000
               WELLS =           0.0000                 WELLS =           0.0000
       RIVER LEAKAGE =       13258.5381         RIVER LEAKAGE =         539.1000

            TOTAL IN =       37990.9062              TOTAL IN =         571.1463

          OUT:                                     OUT:
          ----                                     ----
             STORAGE =           0.0000               STORAGE =           0.0000
       CONSTANT HEAD =           0.0000         CONSTANT HEAD =           0.0000
               WELLS =           0.0000                 WELLS =           0.0000
       RIVER LEAKAGE =       37992.7109         RIVER LEAKAGE =         571.2026

           TOTAL OUT =       37992.7109             TOTAL OUT =         571.2026

            IN - OUT =          -1.8047              IN - OUT =      -5.6335E-02

 PERCENT DISCREPANCY =          -0.00     PERCENT DISCREPANCY =          -0.01






         TIME SUMMARY AT END OF TIME STEP   37 IN STRESS PERIOD    2
                    SECONDS     MINUTES      HOURS       DAYS        YEARS
                    -----------------------------------------------------------
   TIME STEP LENGTH  86400.      1440.0      24.000      1.0000     2.73785E-03
 STRESS PERIOD TIME 3.19680E+06  53280.      888.00      37.000     0.10130    
         TOTAL TIME 3.28320E+06  54720.      912.00      38.000     0.10404    
1

 SOLVING FOR HEAD 

 OUTPUT CONTROL FOR STRESS PERIOD    2   TIME STEP   38
    SAVE HEAD FOR ALL LAYERS
    SAVE DRAWDOWN FOR ALL LAYERS
    SAVE BUDGET
    PRINT HEAD FOR ALL LAYERS
    PRINT BUDGET
 UBDSV1 SAVING "         STORAGE" ON UNIT  53 AT TIME STEP 38, STRESS PERIOD   2
 UBDSV2 SAVING "   CONSTANT HEAD" ON UNIT  53 AT TIME STEP 38, STRESS PERIOD   2
 UBDSV1 SAVING "FLOW RIGHT FACE " ON UNIT  53 AT TIME STEP 38, STRESS PERIOD   2
 UBDSV1 SAVING "FLOW FRONT FACE " ON UNIT  53 AT TIME STEP 38, STRESS PERIOD   2
 UBDSV1 SAVING "FLOW LOWER FACE " ON UNIT  53 AT TIME STEP 38, STRESS PERIOD   2
1
              HEAD IN LAYER   1 AT END OF TIME STEP  38 IN STRESS PERIOD    2
  ---------------------------------------------------------------------------

            1           2           3           4           5           6           7           8           9          10
 ........................................................................................................................
   1    9.997       8.915       7.830       6.738       5.638       4.528       3.407       2.278       1.143      3.7965E-03
   2    9.997       8.915       7.830       6.738       5.638       4.528       3.407       2.278       1.143      3.7965E-03
   3    9.997       8.915       7.830       6.738       5.638       4.528       3.407       2.278       1.143      3.7965E-03
   4    9.997       8.915       7.830       6.738       5.638       4.528       3.407       2.278       1.143      3.7965E-03
   5    9.997       8.915       7.830       6.738       5.638       4.528       3.407       2.278       1.143      3.7965E-03
   6    9.997       8.915       7.830       6.738       5.638       4.528       3.407       2.278       1.143      3.7965E-03
   7    9.997       8.915       7.830       6.738       5.638       4.528       3.407       2.278       1.143      3.7965E-03
   8    9.997       8.915       7.830       6.738       5.638       4.528       3.407       2.278       1.143      3.7965E-03
   9    9.997       8.915       7.830       6.738       5.638       4.528       3.407       2.278       1.143      3.7965E-03
  10    9.997       8.915       7.830       6.738       5.638       4.528       3.407       2.278       1.143      3.7965E-03
1
              HEAD IN LAYER   2 AT END OF TIME STEP  38 IN STRESS PERIOD    2
  ---------------------------------------------------------------------------

            1           2           3           4           5           6           7           8           9          10
 ........................................................................................................................
   1    9.997       8.915       7.830       6.738       5.638       4.528       3.407       2.278       1.143      3.7965E-03
   2    9.997       8.915       7.830       6.738       5.638       4.528       3.407       2.278       1.143      3.7965E-03
   3    9.997       8.915       7.830       6.738       5.638       4.528       3.407       2.278       1.143      3.7965E-03
   4    9.997       8.915       7.830       6.738       5.638       4.528       3.407       2.278       1.143      3.7965E-03
   5    9.997       8.915       7.830       6.738       5.638       4.528       3.407       2.278       1.143      3.7965E-03
   6    9.997       8.915       7.830       6.738       5.638       4.528       3.407       2.278       1.143      3.7965E-03
   7    9.997       8.915       7.830       6.738       5.638       4.528       3.407       2.278       1.143      3.7965E-03
   8    9.997       8.915       7.830       6.738       5.638       4.528       3.407       2.278       1.143      3.7965E-03
   9    9.997       8.915       7.830       6.738       5.638       4.528       3.407       2.278       1.143      3.7965E-03
  10    9.997       8.915       7.830       6.738       5.638       4.528       3.407       2.278       1.143      3.7965E-03
1
              HEAD IN LAYER   3 AT END OF TIME STEP  38 IN STRESS PERIOD    2
  ---------------------------------------------------------------------------

            1           2           3           4           5           6           7           8           9          10
 ........................................................................................................................
   1    9.997       8.915       7.830       6.738       5.638       4.528       3.407       2.278       1.143      3.7965E-03
   2    9.997       8.915       7.830       6.738       5.638       4.528       3.407       2.278       1.143      3.7965E-03
   3    9.997       8.915       7.830       6.738       5.638       4.528       3.407       2.278       1.143      3.7965E-03
   4    9.997       8.915       7.830       6.738       5.638       4.528       3.407       2.278       1.143      3.7965E-03
   5    9.997       8.915       7.830       6.738       5.638       4.528       3.407       2.278       1.143      3.7965E-03
   6    9.997       8.915       7.830       6.738       5.638       4.528       3.407       2.278       1.143      3.7965E-03
   7    9.997       8.915       7.830       6.738       5.638       4.528       3.407       2.278       1.143      3.7965E-03
   8    9.997       8.915       7.830       6.738       5.638       4.528       3.407       2.278       1.143      3.7965E-03
   9    9.997       8.915       7.830       6.738       5.638       4.528       3.407       2.278       1.143      3.7965E-03
  10    9.997       8.915       7.830       6.738       5.638       4.528       3.407       2.278       1.143      3.7965E-03

 HEAD WILL BE SAVED ON UNIT   51 AT END OF TIME STEP   38, STRESS PERIOD    2

 DRAWDOWN WILL BE SAVED ON UNIT   52 AT END OF TIME STEP   38, STRESS PERIOD    2
1
  VOLUMETRIC BUDGET FOR ENTIRE MODEL AT END OF TIME STEP   38, STRESS PERIOD   2
  ------------------------------------------------------------------------------

     CUMULATIVE VOLUMES      L**3       RATES FOR THIS TIME STEP      L**3/T
     ------------------                 ------------------------

           IN:                                      IN:
           ---                                      ---
             STORAGE =       24760.9668               STORAGE =          28.6005
       CONSTANT HEAD =           0.0000         CONSTANT HEAD =           0.0000
               WELLS =           0.0000                 WELLS =           0.0000
       RIVER LEAKAGE =       13799.3555         RIVER LEAKAGE =         540.8170

            TOTAL IN =       38560.3203              TOTAL IN =         569.4175

          OUT:                                     OUT:
          ----                                     ----
             STORAGE =           0.0000               STORAGE =           0.0000
       CONSTANT HEAD =           0.0000         CONSTANT HEAD =           0.0000
               WELLS =           0.0000                 WELLS =           0.0000
       RIVER LEAKAGE =       38562.1914         RIVER LEAKAGE =         569.4794

           TOTAL OUT =       38562.1914             TOTAL OUT =         569.4794

            IN - OUT =          -1.8711              IN - OUT =      -6.1890E-02

 PERCENT DISCREPANCY =          -0.00     PERCENT DISCREPANCY =          -0.01






         TIME SUMMARY AT END OF TIME STEP   38 IN STRESS PERIOD    2
                    SECONDS     MINUTES      HOURS       DAYS        YEARS
                    -----------------------------------------------------------
   TIME STEP LENGTH  86400.      1440.0      24.000      1.0000     2.73785E-03
 STRESS PERIOD TIME 3.28320E+06  54720.      912.00      38.000     0.10404    
         TOTAL TIME 3.36960E+06  56160.      936.00      39.000     0.10678    
1

 SOLVING FOR HEAD 

 OUTPUT CONTROL FOR STRESS PERIOD    2   TIME STEP   39
    SAVE HEAD FOR ALL LAYERS
    SAVE DRAWDOWN FOR ALL LAYERS
    SAVE BUDGET
    PRINT HEAD FOR ALL LAYERS
    PRINT BUDGET
 UBDSV1 SAVING "         STORAGE" ON UNIT  53 AT TIME STEP 39, STRESS PERIOD   2
 UBDSV2 SAVING "   CONSTANT HEAD" ON UNIT  53 AT TIME STEP 39, STRESS PERIOD   2
 UBDSV1 SAVING "FLOW RIGHT FACE " ON UNIT  53 AT TIME STEP 39, STRESS PERIOD   2
 UBDSV1 SAVING "FLOW FRONT FACE " ON UNIT  53 AT TIME STEP 39, STRESS PERIOD   2
 UBDSV1 SAVING "FLOW LOWER FACE " ON UNIT  53 AT TIME STEP 39, STRESS PERIOD   2
1
              HEAD IN LAYER   1 AT END OF TIME STEP  39 IN STRESS PERIOD    2
  ---------------------------------------------------------------------------

            1           2           3           4           5           6           7           8           9          10
 ........................................................................................................................
   1    9.997       8.912       7.824       6.731       5.629       4.519       3.399       2.272       1.140      3.7863E-03
   2    9.997       8.912       7.824       6.731       5.629       4.519       3.399       2.272       1.140      3.7863E-03
   3    9.997       8.912       7.824       6.731       5.629       4.519       3.399       2.272       1.140      3.7863E-03
   4    9.997       8.912       7.824       6.731       5.629       4.519       3.399       2.272       1.140      3.7863E-03
   5    9.997       8.912       7.824       6.731       5.629       4.519       3.399       2.272       1.140      3.7863E-03
   6    9.997       8.912       7.824       6.731       5.629       4.519       3.399       2.272       1.140      3.7863E-03
   7    9.997       8.912       7.824       6.731       5.629       4.519       3.399       2.272       1.140      3.7863E-03
   8    9.997       8.912       7.824       6.731       5.629       4.519       3.399       2.272       1.140      3.7863E-03
   9    9.997       8.912       7.824       6.731       5.629       4.519       3.399       2.272       1.140      3.7863E-03
  10    9.997       8.912       7.824       6.731       5.629       4.519       3.399       2.272       1.140      3.7863E-03
1
              HEAD IN LAYER   2 AT END OF TIME STEP  39 IN STRESS PERIOD    2
  ---------------------------------------------------------------------------

            1           2           3           4           5           6           7           8           9          10
 ........................................................................................................................
   1    9.997       8.912       7.824       6.731       5.629       4.519       3.399       2.272       1.140      3.7863E-03
   2    9.997       8.912       7.824       6.731       5.629       4.519       3.399       2.272       1.140      3.7863E-03
   3    9.997       8.912       7.824       6.731       5.629       4.519       3.399       2.272       1.140      3.7863E-03
   4    9.997       8.912       7.824       6.731       5.629       4.519       3.399       2.272       1.140      3.7863E-03
   5    9.997       8.912       7.824       6.731       5.629       4.519       3.399       2.272       1.140      3.7863E-03
   6    9.997       8.912       7.824       6.731       5.629       4.519       3.399       2.272       1.140      3.7863E-03
   7    9.997       8.912       7.824       6.731       5.629       4.519       3.399       2.272       1.140      3.7863E-03
   8    9.997       8.912       7.824       6.731       5.629       4.519       3.399       2.272       1.140      3.7863E-03
   9    9.997       8.912       7.824       6.731       5.629       4.519       3.399       2.272       1.140      3.7863E-03
  10    9.997       8.912       7.824       6.731       5.629       4.519       3.399       2.272       1.140      3.7863E-03
1
              HEAD IN LAYER   3 AT END OF TIME STEP  39 IN STRESS PERIOD    2
  ---------------------------------------------------------------------------

            1           2           3           4           5           6           7           8           9          10
 ........................................................................................................................
   1    9.997       8.912       7.824       6.731       5.629       4.519       3.399       2.272       1.140      3.7863E-03
   2    9.997       8.912       7.824       6.731       5.629       4.519       3.399       2.272       1.140      3.7863E-03
   3    9.997       8.912       7.824       6.731       5.629       4.519       3.399       2.272       1.140      3.7863E-03
   4    9.997       8.912       7.824       6.731       5.629       4.519       3.399       2.272       1.140      3.7863E-03
   5    9.997       8.912       7.824       6.731       5.629       4.519       3.399       2.272       1.140      3.7863E-03
   6    9.997       8.912       7.824       6.731       5.629       4.519       3.399       2.272       1.140      3.7863E-03
   7    9.997       8.912       7.824       6.731       5.629       4.519       3.399       2.272       1.140      3.7863E-03
   8    9.997       8.912       7.824       6.731       5.629       4.519       3.399       2.272       1.140      3.7863E-03
   9    9.997       8.912       7.824       6.731       5.629       4.519       3.399       2.272       1.140      3.7863E-03
  10    9.997       8.912       7.824       6.731       5.629       4.519       3.399       2.272       1.140      3.7863E-03

 HEAD WILL BE SAVED ON UNIT   51 AT END OF TIME STEP   39, STRESS PERIOD    2

 DRAWDOWN WILL BE SAVED ON UNIT   52 AT END OF TIME STEP   39, STRESS PERIOD    2
1
  VOLUMETRIC BUDGET FOR ENTIRE MODEL AT END OF TIME STEP   39, STRESS PERIOD   2
  ------------------------------------------------------------------------------

     CUMULATIVE VOLUMES      L**3       RATES FOR THIS TIME STEP      L**3/T
     ------------------                 ------------------------

           IN:                                      IN:
           ---                                      ---
             STORAGE =       24786.4922               STORAGE =          25.5249
       CONSTANT HEAD =           0.0000         CONSTANT HEAD =           0.0000
               WELLS =           0.0000                 WELLS =           0.0000
       RIVER LEAKAGE =       14341.7051         RIVER LEAKAGE =         542.3494

            TOTAL IN =       39128.1953              TOTAL IN =         567.8744

          OUT:                                     OUT:
          ----                                     ----
             STORAGE =           0.0000               STORAGE =           0.0000
       CONSTANT HEAD =           0.0000         CONSTANT HEAD =           0.0000
               WELLS =           0.0000                 WELLS =           0.0000
       RIVER LEAKAGE =       39130.1328         RIVER LEAKAGE =         567.9418

           TOTAL OUT =       39130.1328             TOTAL OUT =         567.9418

            IN - OUT =          -1.9375              IN - OUT =      -6.7383E-02

 PERCENT DISCREPANCY =          -0.00     PERCENT DISCREPANCY =          -0.01






         TIME SUMMARY AT END OF TIME STEP   39 IN STRESS PERIOD    2
                    SECONDS     MINUTES      HOURS       DAYS        YEARS
                    -----------------------------------------------------------
   TIME STEP LENGTH  86400.      1440.0      24.000      1.0000     2.73785E-03
 STRESS PERIOD TIME 3.36960E+06  56160.      936.00      39.000     0.10678    
         TOTAL TIME 3.45600E+06  57600.      960.00      40.000     0.10951    
1

 SOLVING FOR HEAD 

 OUTPUT CONTROL FOR STRESS PERIOD    2   TIME STEP   40
    SAVE HEAD FOR ALL LAYERS
    SAVE DRAWDOWN FOR ALL LAYERS
    SAVE BUDGET
    PRINT HEAD FOR ALL LAYERS
    PRINT BUDGET
 UBDSV1 SAVING "         STORAGE" ON UNIT  53 AT TIME STEP 40, STRESS PERIOD   2
 UBDSV2 SAVING "   CONSTANT HEAD" ON UNIT  53 AT TIME STEP 40, STRESS PERIOD   2
 UBDSV1 SAVING "FLOW RIGHT FACE " ON UNIT  53 AT TIME STEP 40, STRESS PERIOD   2
 UBDSV1 SAVING "FLOW FRONT FACE " ON UNIT  53 AT TIME STEP 40, STRESS PERIOD   2
 UBDSV1 SAVING "FLOW LOWER FACE " ON UNIT  53 AT TIME STEP 40, STRESS PERIOD   2
1
              HEAD IN LAYER   1 AT END OF TIME STEP  40 IN STRESS PERIOD    2
  ---------------------------------------------------------------------------

            1           2           3           4           5           6           7           8           9          10
 ........................................................................................................................
   1    9.997       8.909       7.819       6.724       5.621       4.511       3.392       2.267       1.137      3.7771E-03
   2    9.997       8.909       7.819       6.724       5.621       4.511       3.392       2.267       1.137      3.7771E-03
   3    9.997       8.909       7.819       6.724       5.621       4.511       3.392       2.267       1.137      3.7771E-03
   4    9.997       8.909       7.819       6.724       5.621       4.511       3.392       2.267       1.137      3.7771E-03
   5    9.997       8.909       7.819       6.724       5.621       4.511       3.392       2.267       1.137      3.7771E-03
   6    9.997       8.909       7.819       6.724       5.621       4.511       3.392       2.267       1.137      3.7771E-03
   7    9.997       8.909       7.819       6.724       5.621       4.511       3.392       2.267       1.137      3.7771E-03
   8    9.997       8.909       7.819       6.724       5.621       4.511       3.392       2.267       1.137      3.7771E-03
   9    9.997       8.909       7.819       6.724       5.621       4.511       3.392       2.267       1.137      3.7771E-03
  10    9.997       8.909       7.819       6.724       5.621       4.511       3.392       2.267       1.137      3.7771E-03
1
              HEAD IN LAYER   2 AT END OF TIME STEP  40 IN STRESS PERIOD    2
  ---------------------------------------------------------------------------

            1           2           3           4           5           6           7           8           9          10
 ........................................................................................................................
   1    9.997       8.909       7.819       6.724       5.621       4.511       3.392       2.267       1.137      3.7771E-03
   2    9.997       8.909       7.819       6.724       5.621       4.511       3.392       2.267       1.137      3.7771E-03
   3    9.997       8.909       7.819       6.724       5.621       4.511       3.392       2.267       1.137      3.7771E-03
   4    9.997       8.909       7.819       6.724       5.621       4.511       3.392       2.267       1.137      3.7771E-03
   5    9.997       8.909       7.819       6.724       5.621       4.511       3.392       2.267       1.137      3.7771E-03
   6    9.997       8.909       7.819       6.724       5.621       4.511       3.392       2.267       1.137      3.7771E-03
   7    9.997       8.909       7.819       6.724       5.621       4.511       3.392       2.267       1.137      3.7771E-03
   8    9.997       8.909       7.819       6.724       5.621       4.511       3.392       2.267       1.137      3.7771E-03
   9    9.997       8.909       7.819       6.724       5.621       4.511       3.392       2.267       1.137      3.7771E-03
  10    9.997       8.909       7.819       6.724       5.621       4.511       3.392       2.267       1.137      3.7771E-03
1
              HEAD IN LAYER   3 AT END OF TIME STEP  40 IN STRESS PERIOD    2
  ---------------------------------------------------------------------------

            1           2           3           4           5           6           7           8           9          10
 ........................................................................................................................
   1    9.997       8.909       7.819       6.724       5.621       4.511       3.392       2.267       1.137      3.7771E-03
   2    9.997       8.909       7.819       6.724       5.621       4.511       3.392       2.267       1.137      3.7771E-03
   3    9.997       8.909       7.819       6.724       5.621       4.511       3.392       2.267       1.137      3.7771E-03
   4    9.997       8.909       7.819       6.724       5.621       4.511       3.392       2.267       1.137      3.7771E-03
   5    9.997       8.909       7.819       6.724       5.621       4.511       3.392       2.267       1.137      3.7771E-03
   6    9.997       8.909       7.819       6.724       5.621       4.511       3.392       2.267       1.137      3.7771E-03
   7    9.997       8.909       7.819       6.724       5.621       4.511       3.392       2.267       1.137      3.7771E-03
   8    9.997       8.909       7.819       6.724       5.621       4.511       3.392       2.267       1.137      3.7771E-03
   9    9.997       8.909       7.819       6.724       5.621       4.511       3.392       2.267       1.137      3.7771E-03
  10    9.997       8.909       7.819       6.724       5.621       4.511       3.392       2.267       1.137      3.7771E-03

 HEAD WILL BE SAVED ON UNIT   51 AT END OF TIME STEP   40, STRESS PERIOD    2

 DRAWDOWN WILL BE SAVED ON UNIT   52 AT END OF TIME STEP   40, STRESS PERIOD    2
1
  VOLUMETRIC BUDGET FOR ENTIRE MODEL AT END OF TIME STEP   40, STRESS PERIOD   2
  ------------------------------------------------------------------------------

     CUMULATIVE VOLUMES      L**3       RATES FOR THIS TIME STEP      L**3/T
     ------------------                 ------------------------

           IN:                                      IN:
           ---                                      ---
             STORAGE =       24809.2734               STORAGE =          22.7815
       CONSTANT HEAD =           0.0000         CONSTANT HEAD =           0.0000
               WELLS =           0.0000                 WELLS =           0.0000
       RIVER LEAKAGE =       14885.4219         RIVER LEAKAGE =         543.7170

            TOTAL IN =       39694.6953              TOTAL IN =         566.4985

          OUT:                                     OUT:
          ----                                     ----
             STORAGE =           0.0000               STORAGE =           0.0000
       CONSTANT HEAD =           0.0000         CONSTANT HEAD =           0.0000
               WELLS =           0.0000                 WELLS =           0.0000
       RIVER LEAKAGE =       39696.7031         RIVER LEAKAGE =         566.5699

           TOTAL OUT =       39696.7031             TOTAL OUT =         566.5699

            IN - OUT =          -2.0078              IN - OUT =      -7.1411E-02

 PERCENT DISCREPANCY =          -0.01     PERCENT DISCREPANCY =          -0.01






         TIME SUMMARY AT END OF TIME STEP   40 IN STRESS PERIOD    2
                    SECONDS     MINUTES      HOURS       DAYS        YEARS
                    -----------------------------------------------------------
   TIME STEP LENGTH  86400.      1440.0      24.000      1.0000     2.73785E-03
 STRESS PERIOD TIME 3.45600E+06  57600.      960.00      40.000     0.10951    
         TOTAL TIME 3.54240E+06  59040.      984.00      41.000     0.11225    
1

 SOLVING FOR HEAD 

 OUTPUT CONTROL FOR STRESS PERIOD    2   TIME STEP   41
    SAVE HEAD FOR ALL LAYERS
    SAVE DRAWDOWN FOR ALL LAYERS
    SAVE BUDGET
    PRINT HEAD FOR ALL LAYERS
    PRINT BUDGET
 UBDSV1 SAVING "         STORAGE" ON UNIT  53 AT TIME STEP 41, STRESS PERIOD   2
 UBDSV2 SAVING "   CONSTANT HEAD" ON UNIT  53 AT TIME STEP 41, STRESS PERIOD   2
 UBDSV1 SAVING "FLOW RIGHT FACE " ON UNIT  53 AT TIME STEP 41, STRESS PERIOD   2
 UBDSV1 SAVING "FLOW FRONT FACE " ON UNIT  53 AT TIME STEP 41, STRESS PERIOD   2
 UBDSV1 SAVING "FLOW LOWER FACE " ON UNIT  53 AT TIME STEP 41, STRESS PERIOD   2
1
              HEAD IN LAYER   1 AT END OF TIME STEP  41 IN STRESS PERIOD    2
  ---------------------------------------------------------------------------

            1           2           3           4           5           6           7           8           9          10
 ........................................................................................................................
   1    9.997       8.907       7.814       6.717       5.614       4.504       3.386       2.263       1.134      3.7690E-03
   2    9.997       8.907       7.814       6.717       5.614       4.504       3.386       2.263       1.134      3.7690E-03
   3    9.997       8.907       7.814       6.717       5.614       4.504       3.386       2.263       1.134      3.7690E-03
   4    9.997       8.907       7.814       6.717       5.614       4.504       3.386       2.263       1.134      3.7690E-03
   5    9.997       8.907       7.814       6.717       5.614       4.504       3.386       2.263       1.134      3.7690E-03
   6    9.997       8.907       7.814       6.717       5.614       4.504       3.386       2.263       1.134      3.7690E-03
   7    9.997       8.907       7.814       6.717       5.614       4.504       3.386       2.263       1.134      3.7690E-03
   8    9.997       8.907       7.814       6.717       5.614       4.504       3.386       2.263       1.134      3.7690E-03
   9    9.997       8.907       7.814       6.717       5.614       4.504       3.386       2.263       1.134      3.7690E-03
  10    9.997       8.907       7.814       6.717       5.614       4.504       3.386       2.263       1.134      3.7690E-03
1
              HEAD IN LAYER   2 AT END OF TIME STEP  41 IN STRESS PERIOD    2
  ---------------------------------------------------------------------------

            1           2           3           4           5           6           7           8           9          10
 ........................................................................................................................
   1    9.997       8.907       7.814       6.717       5.614       4.504       3.386       2.263       1.134      3.7690E-03
   2    9.997       8.907       7.814       6.717       5.614       4.504       3.386       2.263       1.134      3.7690E-03
   3    9.997       8.907       7.814       6.717       5.614       4.504       3.386       2.263       1.134      3.7690E-03
   4    9.997       8.907       7.814       6.717       5.614       4.504       3.386       2.263       1.134      3.7690E-03
   5    9.997       8.907       7.814       6.717       5.614       4.504       3.386       2.263       1.134      3.7690E-03
   6    9.997       8.907       7.814       6.717       5.614       4.504       3.386       2.263       1.134      3.7690E-03
   7    9.997       8.907       7.814       6.717       5.614       4.504       3.386       2.263       1.134      3.7690E-03
   8    9.997       8.907       7.814       6.717       5.614       4.504       3.386       2.263       1.134      3.7690E-03
   9    9.997       8.907       7.814       6.717       5.614       4.504       3.386       2.263       1.134      3.7690E-03
  10    9.997       8.907       7.814       6.717       5.614       4.504       3.386       2.263       1.134      3.7690E-03
1
              HEAD IN LAYER   3 AT END OF TIME STEP  41 IN STRESS PERIOD    2
  ---------------------------------------------------------------------------

            1           2           3           4           5           6           7           8           9          10
 ........................................................................................................................
   1    9.997       8.907       7.814       6.717       5.614       4.504       3.386       2.263       1.134      3.7690E-03
   2    9.997       8.907       7.814       6.717       5.614       4.504       3.386       2.263       1.134      3.7690E-03
   3    9.997       8.907       7.814       6.717       5.614       4.504       3.386       2.263       1.134      3.7690E-03
   4    9.997       8.907       7.814       6.717       5.614       4.504       3.386       2.263       1.134      3.7690E-03
   5    9.997       8.907       7.814       6.717       5.614       4.504       3.386       2.263       1.134      3.7690E-03
   6    9.997       8.907       7.814       6.717       5.614       4.504       3.386       2.263       1.134      3.7690E-03
   7    9.997       8.907       7.814       6.717       5.614       4.504       3.386       2.263       1.134      3.7690E-03
   8    9.997       8.907       7.814       6.717       5.614       4.504       3.386       2.263       1.134      3.7690E-03
   9    9.997       8.907       7.814       6.717       5.614       4.504       3.386       2.263       1.134      3.7690E-03
  10    9.997       8.907       7.814       6.717       5.614       4.504       3.386       2.263       1.134      3.7690E-03

 HEAD WILL BE SAVED ON UNIT   51 AT END OF TIME STEP   41, STRESS PERIOD    2

 DRAWDOWN WILL BE SAVED ON UNIT   52 AT END OF TIME STEP   41, STRESS PERIOD    2
1
  VOLUMETRIC BUDGET FOR ENTIRE MODEL AT END OF TIME STEP   41, STRESS PERIOD   2
  ------------------------------------------------------------------------------

     CUMULATIVE VOLUMES      L**3       RATES FOR THIS TIME STEP      L**3/T
     ------------------                 ------------------------

           IN:                                      IN:
           ---                                      ---
             STORAGE =       24829.6055               STORAGE =          20.3324
       CONSTANT HEAD =           0.0000         CONSTANT HEAD =           0.0000
               WELLS =           0.0000                 WELLS =           0.0000
       RIVER LEAKAGE =       15430.3594         RIVER LEAKAGE =         544.9377

            TOTAL IN =       40259.9648              TOTAL IN =         565.2701

          OUT:                                     OUT:
          ----                                     ----
             STORAGE =           0.0000               STORAGE =           0.0000
       CONSTANT HEAD =           0.0000         CONSTANT HEAD =           0.0000
               WELLS =           0.0000                 WELLS =           0.0000
       RIVER LEAKAGE =       40262.0469         RIVER LEAKAGE =         565.3450

           TOTAL OUT =       40262.0469             TOTAL OUT =         565.3450

            IN - OUT =          -2.0820              IN - OUT =      -7.4890E-02

 PERCENT DISCREPANCY =          -0.01     PERCENT DISCREPANCY =          -0.01






         TIME SUMMARY AT END OF TIME STEP   41 IN STRESS PERIOD    2
                    SECONDS     MINUTES      HOURS       DAYS        YEARS
                    -----------------------------------------------------------
   TIME STEP LENGTH  86400.      1440.0      24.000      1.0000     2.73785E-03
 STRESS PERIOD TIME 3.54240E+06  59040.      984.00      41.000     0.11225    
         TOTAL TIME 3.62880E+06  60480.      1008.0      42.000     0.11499    
1

 SOLVING FOR HEAD 

 OUTPUT CONTROL FOR STRESS PERIOD    2   TIME STEP   42
    SAVE HEAD FOR ALL LAYERS
    SAVE DRAWDOWN FOR ALL LAYERS
    SAVE BUDGET
    PRINT HEAD FOR ALL LAYERS
    PRINT BUDGET
 UBDSV1 SAVING "         STORAGE" ON UNIT  53 AT TIME STEP 42, STRESS PERIOD   2
 UBDSV2 SAVING "   CONSTANT HEAD" ON UNIT  53 AT TIME STEP 42, STRESS PERIOD   2
 UBDSV1 SAVING "FLOW RIGHT FACE " ON UNIT  53 AT TIME STEP 42, STRESS PERIOD   2
 UBDSV1 SAVING "FLOW FRONT FACE " ON UNIT  53 AT TIME STEP 42, STRESS PERIOD   2
 UBDSV1 SAVING "FLOW LOWER FACE " ON UNIT  53 AT TIME STEP 42, STRESS PERIOD   2
1
              HEAD IN LAYER   1 AT END OF TIME STEP  42 IN STRESS PERIOD    2
  ---------------------------------------------------------------------------

            1           2           3           4           5           6           7           8           9          10
 ........................................................................................................................
   1    9.997       8.905       7.810       6.712       5.608       4.497       3.381       2.259       1.132      3.7617E-03
   2    9.997       8.905       7.810       6.712       5.608       4.497       3.381       2.259       1.132      3.7617E-03
   3    9.997       8.905       7.810       6.712       5.608       4.497       3.381       2.259       1.132      3.7617E-03
   4    9.997       8.905       7.810       6.712       5.608       4.497       3.381       2.259       1.132      3.7617E-03
   5    9.997       8.905       7.810       6.712       5.608       4.497       3.381       2.259       1.132      3.7617E-03
   6    9.997       8.905       7.810       6.712       5.608       4.497       3.381       2.259       1.132      3.7617E-03
   7    9.997       8.905       7.810       6.712       5.608       4.497       3.381       2.259       1.132      3.7617E-03
   8    9.997       8.905       7.810       6.712       5.608       4.497       3.381       2.259       1.132      3.7617E-03
   9    9.997       8.905       7.810       6.712       5.608       4.497       3.381       2.259       1.132      3.7617E-03
  10    9.997       8.905       7.810       6.712       5.608       4.497       3.381       2.259       1.132      3.7617E-03
1
              HEAD IN LAYER   2 AT END OF TIME STEP  42 IN STRESS PERIOD    2
  ---------------------------------------------------------------------------

            1           2           3           4           5           6           7           8           9          10
 ........................................................................................................................
   1    9.997       8.905       7.810       6.712       5.608       4.497       3.381       2.259       1.132      3.7617E-03
   2    9.997       8.905       7.810       6.712       5.608       4.497       3.381       2.259       1.132      3.7617E-03
   3    9.997       8.905       7.810       6.712       5.608       4.497       3.381       2.259       1.132      3.7617E-03
   4    9.997       8.905       7.810       6.712       5.608       4.497       3.381       2.259       1.132      3.7617E-03
   5    9.997       8.905       7.810       6.712       5.608       4.497       3.381       2.259       1.132      3.7617E-03
   6    9.997       8.905       7.810       6.712       5.608       4.497       3.381       2.259       1.132      3.7617E-03
   7    9.997       8.905       7.810       6.712       5.608       4.497       3.381       2.259       1.132      3.7617E-03
   8    9.997       8.905       7.810       6.712       5.608       4.497       3.381       2.259       1.132      3.7617E-03
   9    9.997       8.905       7.810       6.712       5.608       4.497       3.381       2.259       1.132      3.7617E-03
  10    9.997       8.905       7.810       6.712       5.608       4.497       3.381       2.259       1.132      3.7617E-03
1
              HEAD IN LAYER   3 AT END OF TIME STEP  42 IN STRESS PERIOD    2
  ---------------------------------------------------------------------------

            1           2           3           4           5           6           7           8           9          10
 ........................................................................................................................
   1    9.997       8.905       7.810       6.712       5.608       4.497       3.381       2.259       1.132      3.7617E-03
   2    9.997       8.905       7.810       6.712       5.608       4.497       3.381       2.259       1.132      3.7617E-03
   3    9.997       8.905       7.810       6.712       5.608       4.497       3.381       2.259       1.132      3.7617E-03
   4    9.997       8.905       7.810       6.712       5.608       4.497       3.381       2.259       1.132      3.7617E-03
   5    9.997       8.905       7.810       6.712       5.608       4.497       3.381       2.259       1.132      3.7617E-03
   6    9.997       8.905       7.810       6.712       5.608       4.497       3.381       2.259       1.132      3.7617E-03
   7    9.997       8.905       7.810       6.712       5.608       4.497       3.381       2.259       1.132      3.7617E-03
   8    9.997       8.905       7.810       6.712       5.608       4.497       3.381       2.259       1.132      3.7617E-03
   9    9.997       8.905       7.810       6.712       5.608       4.497       3.381       2.259       1.132      3.7617E-03
  10    9.997       8.905       7.810       6.712       5.608       4.497       3.381       2.259       1.132      3.7617E-03

 HEAD WILL BE SAVED ON UNIT   51 AT END OF TIME STEP   42, STRESS PERIOD    2

 DRAWDOWN WILL BE SAVED ON UNIT   52 AT END OF TIME STEP   42, STRESS PERIOD    2
1
  VOLUMETRIC BUDGET FOR ENTIRE MODEL AT END OF TIME STEP   42, STRESS PERIOD   2
  ------------------------------------------------------------------------------

     CUMULATIVE VOLUMES      L**3       RATES FOR THIS TIME STEP      L**3/T
     ------------------                 ------------------------

           IN:                                      IN:
           ---                                      ---
             STORAGE =       24847.7520               STORAGE =          18.1468
       CONSTANT HEAD =           0.0000         CONSTANT HEAD =           0.0000
               WELLS =           0.0000                 WELLS =           0.0000
       RIVER LEAKAGE =       15976.3867         RIVER LEAKAGE =         546.0274

            TOTAL IN =       40824.1406              TOTAL IN =         564.1742

          OUT:                                     OUT:
          ----                                     ----
             STORAGE =           0.0000               STORAGE =           0.0000
       CONSTANT HEAD =           0.0000         CONSTANT HEAD =           0.0000
               WELLS =           0.0000                 WELLS =           0.0000
       RIVER LEAKAGE =       40826.3008         RIVER LEAKAGE =         564.2523

           TOTAL OUT =       40826.3008             TOTAL OUT =         564.2523

            IN - OUT =          -2.1602              IN - OUT =      -7.8064E-02

 PERCENT DISCREPANCY =          -0.01     PERCENT DISCREPANCY =          -0.01






         TIME SUMMARY AT END OF TIME STEP   42 IN STRESS PERIOD    2
                    SECONDS     MINUTES      HOURS       DAYS        YEARS
                    -----------------------------------------------------------
   TIME STEP LENGTH  86400.      1440.0      24.000      1.0000     2.73785E-03
 STRESS PERIOD TIME 3.62880E+06  60480.      1008.0      42.000     0.11499    
         TOTAL TIME 3.71520E+06  61920.      1032.0      43.000     0.11773    
1

 SOLVING FOR HEAD 

 OUTPUT CONTROL FOR STRESS PERIOD    2   TIME STEP   43
    SAVE HEAD FOR ALL LAYERS
    SAVE DRAWDOWN FOR ALL LAYERS
    SAVE BUDGET
    PRINT HEAD FOR ALL LAYERS
    PRINT BUDGET
 UBDSV1 SAVING "         STORAGE" ON UNIT  53 AT TIME STEP 43, STRESS PERIOD   2
 UBDSV2 SAVING "   CONSTANT HEAD" ON UNIT  53 AT TIME STEP 43, STRESS PERIOD   2
 UBDSV1 SAVING "FLOW RIGHT FACE " ON UNIT  53 AT TIME STEP 43, STRESS PERIOD   2
 UBDSV1 SAVING "FLOW FRONT FACE " ON UNIT  53 AT TIME STEP 43, STRESS PERIOD   2
 UBDSV1 SAVING "FLOW LOWER FACE " ON UNIT  53 AT TIME STEP 43, STRESS PERIOD   2
1
              HEAD IN LAYER   1 AT END OF TIME STEP  43 IN STRESS PERIOD    2
  ---------------------------------------------------------------------------

            1           2           3           4           5           6           7           8           9          10
 ........................................................................................................................
   1    9.997       8.903       7.807       6.707       5.602       4.492       3.376       2.255       1.130      3.7552E-03
   2    9.997       8.903       7.807       6.707       5.602       4.492       3.376       2.255       1.130      3.7552E-03
   3    9.997       8.903       7.807       6.707       5.602       4.492       3.376       2.255       1.130      3.7552E-03
   4    9.997       8.903       7.807       6.707       5.602       4.492       3.376       2.255       1.130      3.7552E-03
   5    9.997       8.903       7.807       6.707       5.602       4.492       3.376       2.255       1.130      3.7552E-03
   6    9.997       8.903       7.807       6.707       5.602       4.492       3.376       2.255       1.130      3.7552E-03
   7    9.997       8.903       7.807       6.707       5.602       4.492       3.376       2.255       1.130      3.7552E-03
   8    9.997       8.903       7.807       6.707       5.602       4.492       3.376       2.255       1.130      3.7552E-03
   9    9.997       8.903       7.807       6.707       5.602       4.492       3.376       2.255       1.130      3.7552E-03
  10    9.997       8.903       7.807       6.707       5.602       4.492       3.376       2.255       1.130      3.7552E-03
1
              HEAD IN LAYER   2 AT END OF TIME STEP  43 IN STRESS PERIOD    2
  ---------------------------------------------------------------------------

            1           2           3           4           5           6           7           8           9          10
 ........................................................................................................................
   1    9.997       8.903       7.807       6.707       5.602       4.492       3.376       2.255       1.130      3.7552E-03
   2    9.997       8.903       7.807       6.707       5.602       4.492       3.376       2.255       1.130      3.7552E-03
   3    9.997       8.903       7.807       6.707       5.602       4.492       3.376       2.255       1.130      3.7552E-03
   4    9.997       8.903       7.807       6.707       5.602       4.492       3.376       2.255       1.130      3.7552E-03
   5    9.997       8.903       7.807       6.707       5.602       4.492       3.376       2.255       1.130      3.7552E-03
   6    9.997       8.903       7.807       6.707       5.602       4.492       3.376       2.255       1.130      3.7552E-03
   7    9.997       8.903       7.807       6.707       5.602       4.492       3.376       2.255       1.130      3.7552E-03
   8    9.997       8.903       7.807       6.707       5.602       4.492       3.376       2.255       1.130      3.7552E-03
   9    9.997       8.903       7.807       6.707       5.602       4.492       3.376       2.255       1.130      3.7552E-03
  10    9.997       8.903       7.807       6.707       5.602       4.492       3.376       2.255       1.130      3.7552E-03
1
              HEAD IN LAYER   3 AT END OF TIME STEP  43 IN STRESS PERIOD    2
  ---------------------------------------------------------------------------

            1           2           3           4           5           6           7           8           9          10
 ........................................................................................................................
   1    9.997       8.903       7.807       6.707       5.602       4.492       3.376       2.255       1.130      3.7552E-03
   2    9.997       8.903       7.807       6.707       5.602       4.492       3.376       2.255       1.130      3.7552E-03
   3    9.997       8.903       7.807       6.707       5.602       4.492       3.376       2.255       1.130      3.7552E-03
   4    9.997       8.903       7.807       6.707       5.602       4.492       3.376       2.255       1.130      3.7552E-03
   5    9.997       8.903       7.807       6.707       5.602       4.492       3.376       2.255       1.130      3.7552E-03
   6    9.997       8.903       7.807       6.707       5.602       4.492       3.376       2.255       1.130      3.7552E-03
   7    9.997       8.903       7.807       6.707       5.602       4.492       3.376       2.255       1.130      3.7552E-03
   8    9.997       8.903       7.807       6.707       5.602       4.492       3.376       2.255       1.130      3.7552E-03
   9    9.997       8.903       7.807       6.707       5.602       4.492       3.376       2.255       1.130      3.7552E-03
  10    9.997       8.903       7.807       6.707       5.602       4.492       3.376       2.255       1.130      3.7552E-03

 HEAD WILL BE SAVED ON UNIT   51 AT END OF TIME STEP   43, STRESS PERIOD    2

 DRAWDOWN WILL BE SAVED ON UNIT   52 AT END OF TIME STEP   43, STRESS PERIOD    2
1
  VOLUMETRIC BUDGET FOR ENTIRE MODEL AT END OF TIME STEP   43, STRESS PERIOD   2
  ------------------------------------------------------------------------------

     CUMULATIVE VOLUMES      L**3       RATES FOR THIS TIME STEP      L**3/T
     ------------------                 ------------------------

           IN:                                      IN:
           ---                                      ---
             STORAGE =       24863.9473               STORAGE =          16.1958
       CONSTANT HEAD =           0.0000         CONSTANT HEAD =           0.0000
               WELLS =           0.0000                 WELLS =           0.0000
       RIVER LEAKAGE =       16523.3867         RIVER LEAKAGE =         547.0000

            TOTAL IN =       41387.3359              TOTAL IN =         563.1958

          OUT:                                     OUT:
          ----                                     ----
             STORAGE =           0.0000               STORAGE =           0.0000
       CONSTANT HEAD =           0.0000         CONSTANT HEAD =           0.0000
               WELLS =           0.0000                 WELLS =           0.0000
       RIVER LEAKAGE =       41389.5781         RIVER LEAKAGE =         563.2767

           TOTAL OUT =       41389.5781             TOTAL OUT =         563.2767

            IN - OUT =          -2.2422              IN - OUT =      -8.0933E-02

 PERCENT DISCREPANCY =          -0.01     PERCENT DISCREPANCY =          -0.01






         TIME SUMMARY AT END OF TIME STEP   43 IN STRESS PERIOD    2
                    SECONDS     MINUTES      HOURS       DAYS        YEARS
                    -----------------------------------------------------------
   TIME STEP LENGTH  86400.      1440.0      24.000      1.0000     2.73785E-03
 STRESS PERIOD TIME 3.71520E+06  61920.      1032.0      43.000     0.11773    
         TOTAL TIME 3.80160E+06  63360.      1056.0      44.000     0.12047    
1

 SOLVING FOR HEAD 

 OUTPUT CONTROL FOR STRESS PERIOD    2   TIME STEP   44
    SAVE HEAD FOR ALL LAYERS
    SAVE DRAWDOWN FOR ALL LAYERS
    SAVE BUDGET
    PRINT HEAD FOR ALL LAYERS
    PRINT BUDGET
 UBDSV1 SAVING "         STORAGE" ON UNIT  53 AT TIME STEP 44, STRESS PERIOD   2
 UBDSV2 SAVING "   CONSTANT HEAD" ON UNIT  53 AT TIME STEP 44, STRESS PERIOD   2
 UBDSV1 SAVING "FLOW RIGHT FACE " ON UNIT  53 AT TIME STEP 44, STRESS PERIOD   2
 UBDSV1 SAVING "FLOW FRONT FACE " ON UNIT  53 AT TIME STEP 44, STRESS PERIOD   2
 UBDSV1 SAVING "FLOW LOWER FACE " ON UNIT  53 AT TIME STEP 44, STRESS PERIOD   2
1
              HEAD IN LAYER   1 AT END OF TIME STEP  44 IN STRESS PERIOD    2
  ---------------------------------------------------------------------------

            1           2           3           4           5           6           7           8           9          10
 ........................................................................................................................
   1    9.997       8.901       7.803       6.702       5.597       4.487       3.371       2.252       1.129      3.7494E-03
   2    9.997       8.901       7.803       6.702       5.597       4.487       3.371       2.252       1.129      3.7494E-03
   3    9.997       8.901       7.803       6.702       5.597       4.487       3.371       2.252       1.129      3.7494E-03
   4    9.997       8.901       7.803       6.702       5.597       4.487       3.371       2.252       1.129      3.7494E-03
   5    9.997       8.901       7.803       6.702       5.597       4.487       3.371       2.252       1.129      3.7494E-03
   6    9.997       8.901       7.803       6.702       5.597       4.487       3.371       2.252       1.129      3.7494E-03
   7    9.997       8.901       7.803       6.702       5.597       4.487       3.371       2.252       1.129      3.7494E-03
   8    9.997       8.901       7.803       6.702       5.597       4.487       3.371       2.252       1.129      3.7494E-03
   9    9.997       8.901       7.803       6.702       5.597       4.487       3.371       2.252       1.129      3.7494E-03
  10    9.997       8.901       7.803       6.702       5.597       4.487       3.371       2.252       1.129      3.7494E-03
1
              HEAD IN LAYER   2 AT END OF TIME STEP  44 IN STRESS PERIOD    2
  ---------------------------------------------------------------------------

            1           2           3           4           5           6           7           8           9          10
 ........................................................................................................................
   1    9.997       8.901       7.803       6.702       5.597       4.487       3.371       2.252       1.129      3.7494E-03
   2    9.997       8.901       7.803       6.702       5.597       4.487       3.371       2.252       1.129      3.7494E-03
   3    9.997       8.901       7.803       6.702       5.597       4.487       3.371       2.252       1.129      3.7494E-03
   4    9.997       8.901       7.803       6.702       5.597       4.487       3.371       2.252       1.129      3.7494E-03
   5    9.997       8.901       7.803       6.702       5.597       4.487       3.371       2.252       1.129      3.7494E-03
   6    9.997       8.901       7.803       6.702       5.597       4.487       3.371       2.252       1.129      3.7494E-03
   7    9.997       8.901       7.803       6.702       5.597       4.487       3.371       2.252       1.129      3.7494E-03
   8    9.997       8.901       7.803       6.702       5.597       4.487       3.371       2.252       1.129      3.7494E-03
   9    9.997       8.901       7.803       6.702       5.597       4.487       3.371       2.252       1.129      3.7494E-03
  10    9.997       8.901       7.803       6.702       5.597       4.487       3.371       2.252       1.129      3.7494E-03
1
              HEAD IN LAYER   3 AT END OF TIME STEP  44 IN STRESS PERIOD    2
  ---------------------------------------------------------------------------

            1           2           3           4           5           6           7           8           9          10
 ........................................................................................................................
   1    9.997       8.901       7.803       6.702       5.597       4.487       3.371       2.252       1.129      3.7494E-03
   2    9.997       8.901       7.803       6.702       5.597       4.487       3.371       2.252       1.129      3.7494E-03
   3    9.997       8.901       7.803       6.702       5.597       4.487       3.371       2.252       1.129      3.7494E-03
   4    9.997       8.901       7.803       6.702       5.597       4.487       3.371       2.252       1.129      3.7494E-03
   5    9.997       8.901       7.803       6.702       5.597       4.487       3.371       2.252       1.129      3.7494E-03
   6    9.997       8.901       7.803       6.702       5.597       4.487       3.371       2.252       1.129      3.7494E-03
   7    9.997       8.901       7.803       6.702       5.597       4.487       3.371       2.252       1.129      3.7494E-03
   8    9.997       8.901       7.803       6.702       5.597       4.487       3.371       2.252       1.129      3.7494E-03
   9    9.997       8.901       7.803       6.702       5.597       4.487       3.371       2.252       1.129      3.7494E-03
  10    9.997       8.901       7.803       6.702       5.597       4.487       3.371       2.252       1.129      3.7494E-03

 HEAD WILL BE SAVED ON UNIT   51 AT END OF TIME STEP   44, STRESS PERIOD    2

 DRAWDOWN WILL BE SAVED ON UNIT   52 AT END OF TIME STEP   44, STRESS PERIOD    2
1
  VOLUMETRIC BUDGET FOR ENTIRE MODEL AT END OF TIME STEP   44, STRESS PERIOD   2
  ------------------------------------------------------------------------------

     CUMULATIVE VOLUMES      L**3       RATES FOR THIS TIME STEP      L**3/T
     ------------------                 ------------------------

           IN:                                      IN:
           ---                                      ---
             STORAGE =       24878.4023               STORAGE =          14.4545
       CONSTANT HEAD =           0.0000         CONSTANT HEAD =           0.0000
               WELLS =           0.0000                 WELLS =           0.0000
       RIVER LEAKAGE =       17071.2539         RIVER LEAKAGE =         547.8677

            TOTAL IN =       41949.6562              TOTAL IN =         562.3222

          OUT:                                     OUT:
          ----                                     ----
             STORAGE =           0.0000               STORAGE =           0.0000
       CONSTANT HEAD =           0.0000         CONSTANT HEAD =           0.0000
               WELLS =           0.0000                 WELLS =           0.0000
       RIVER LEAKAGE =       41951.9844         RIVER LEAKAGE =         562.4059

           TOTAL OUT =       41951.9844             TOTAL OUT =         562.4059

            IN - OUT =          -2.3281              IN - OUT =      -8.3740E-02

 PERCENT DISCREPANCY =          -0.01     PERCENT DISCREPANCY =          -0.01






         TIME SUMMARY AT END OF TIME STEP   44 IN STRESS PERIOD    2
                    SECONDS     MINUTES      HOURS       DAYS        YEARS
                    -----------------------------------------------------------
   TIME STEP LENGTH  86400.      1440.0      24.000      1.0000     2.73785E-03
 STRESS PERIOD TIME 3.80160E+06  63360.      1056.0      44.000     0.12047    
         TOTAL TIME 3.88800E+06  64800.      1080.0      45.000     0.12320    
1

 SOLVING FOR HEAD 

 OUTPUT CONTROL FOR STRESS PERIOD    2   TIME STEP   45
    SAVE HEAD FOR ALL LAYERS
    SAVE DRAWDOWN FOR ALL LAYERS
    SAVE BUDGET
    PRINT HEAD FOR ALL LAYERS
    PRINT BUDGET
 UBDSV1 SAVING "         STORAGE" ON UNIT  53 AT TIME STEP 45, STRESS PERIOD   2
 UBDSV2 SAVING "   CONSTANT HEAD" ON UNIT  53 AT TIME STEP 45, STRESS PERIOD   2
 UBDSV1 SAVING "FLOW RIGHT FACE " ON UNIT  53 AT TIME STEP 45, STRESS PERIOD   2
 UBDSV1 SAVING "FLOW FRONT FACE " ON UNIT  53 AT TIME STEP 45, STRESS PERIOD   2
 UBDSV1 SAVING "FLOW LOWER FACE " ON UNIT  53 AT TIME STEP 45, STRESS PERIOD   2
1
              HEAD IN LAYER   1 AT END OF TIME STEP  45 IN STRESS PERIOD    2
  ---------------------------------------------------------------------------

            1           2           3           4           5           6           7           8           9          10
 ........................................................................................................................
   1    9.997       8.899       7.800       6.699       5.593       4.482       3.367       2.249       1.127      3.7442E-03
   2    9.997       8.899       7.800       6.699       5.593       4.482       3.367       2.249       1.127      3.7442E-03
   3    9.997       8.899       7.800       6.699       5.593       4.482       3.367       2.249       1.127      3.7442E-03
   4    9.997       8.899       7.800       6.699       5.593       4.482       3.367       2.249       1.127      3.7442E-03
   5    9.997       8.899       7.800       6.699       5.593       4.482       3.367       2.249       1.127      3.7442E-03
   6    9.997       8.899       7.800       6.699       5.593       4.482       3.367       2.249       1.127      3.7442E-03
   7    9.997       8.899       7.800       6.699       5.593       4.482       3.367       2.249       1.127      3.7442E-03
   8    9.997       8.899       7.800       6.699       5.593       4.482       3.367       2.249       1.127      3.7442E-03
   9    9.997       8.899       7.800       6.699       5.593       4.482       3.367       2.249       1.127      3.7442E-03
  10    9.997       8.899       7.800       6.699       5.593       4.482       3.367       2.249       1.127      3.7442E-03
1
              HEAD IN LAYER   2 AT END OF TIME STEP  45 IN STRESS PERIOD    2
  ---------------------------------------------------------------------------

            1           2           3           4           5           6           7           8           9          10
 ........................................................................................................................
   1    9.997       8.899       7.800       6.699       5.593       4.482       3.367       2.249       1.127      3.7442E-03
   2    9.997       8.899       7.800       6.699       5.593       4.482       3.367       2.249       1.127      3.7442E-03
   3    9.997       8.899       7.800       6.699       5.593       4.482       3.367       2.249       1.127      3.7442E-03
   4    9.997       8.899       7.800       6.699       5.593       4.482       3.367       2.249       1.127      3.7442E-03
   5    9.997       8.899       7.800       6.699       5.593       4.482       3.367       2.249       1.127      3.7442E-03
   6    9.997       8.899       7.800       6.699       5.593       4.482       3.367       2.249       1.127      3.7442E-03
   7    9.997       8.899       7.800       6.699       5.593       4.482       3.367       2.249       1.127      3.7442E-03
   8    9.997       8.899       7.800       6.699       5.593       4.482       3.367       2.249       1.127      3.7442E-03
   9    9.997       8.899       7.800       6.699       5.593       4.482       3.367       2.249       1.127      3.7442E-03
  10    9.997       8.899       7.800       6.699       5.593       4.482       3.367       2.249       1.127      3.7442E-03
1
              HEAD IN LAYER   3 AT END OF TIME STEP  45 IN STRESS PERIOD    2
  ---------------------------------------------------------------------------

            1           2           3           4           5           6           7           8           9          10
 ........................................................................................................................
   1    9.997       8.899       7.800       6.699       5.593       4.482       3.367       2.249       1.127      3.7442E-03
   2    9.997       8.899       7.800       6.699       5.593       4.482       3.367       2.249       1.127      3.7442E-03
   3    9.997       8.899       7.800       6.699       5.593       4.482       3.367       2.249       1.127      3.7442E-03
   4    9.997       8.899       7.800       6.699       5.593       4.482       3.367       2.249       1.127      3.7442E-03
   5    9.997       8.899       7.800       6.699       5.593       4.482       3.367       2.249       1.127      3.7442E-03
   6    9.997       8.899       7.800       6.699       5.593       4.482       3.367       2.249       1.127      3.7442E-03
   7    9.997       8.899       7.800       6.699       5.593       4.482       3.367       2.249       1.127      3.7442E-03
   8    9.997       8.899       7.800       6.699       5.593       4.482       3.367       2.249       1.127      3.7442E-03
   9    9.997       8.899       7.800       6.699       5.593       4.482       3.367       2.249       1.127      3.7442E-03
  10    9.997       8.899       7.800       6.699       5.593       4.482       3.367       2.249       1.127      3.7442E-03

 HEAD WILL BE SAVED ON UNIT   51 AT END OF TIME STEP   45, STRESS PERIOD    2

 DRAWDOWN WILL BE SAVED ON UNIT   52 AT END OF TIME STEP   45, STRESS PERIOD    2
1
  VOLUMETRIC BUDGET FOR ENTIRE MODEL AT END OF TIME STEP   45, STRESS PERIOD   2
  ------------------------------------------------------------------------------

     CUMULATIVE VOLUMES      L**3       RATES FOR THIS TIME STEP      L**3/T
     ------------------                 ------------------------

           IN:                                      IN:
           ---                                      ---
             STORAGE =       24891.3027               STORAGE =          12.9005
       CONSTANT HEAD =           0.0000         CONSTANT HEAD =           0.0000
               WELLS =           0.0000                 WELLS =           0.0000
       RIVER LEAKAGE =       17619.8965         RIVER LEAKAGE =         548.6423

            TOTAL IN =       42511.1992              TOTAL IN =         561.5428

          OUT:                                     OUT:
          ----                                     ----
             STORAGE =           0.0000               STORAGE =           0.0000
       CONSTANT HEAD =           0.0000         CONSTANT HEAD =           0.0000
               WELLS =           0.0000                 WELLS =           0.0000
       RIVER LEAKAGE =       42513.6133         RIVER LEAKAGE =         561.6292

           TOTAL OUT =       42513.6133             TOTAL OUT =         561.6292

            IN - OUT =          -2.4141              IN - OUT =      -8.6365E-02

 PERCENT DISCREPANCY =          -0.01     PERCENT DISCREPANCY =          -0.02






         TIME SUMMARY AT END OF TIME STEP   45 IN STRESS PERIOD    2
                    SECONDS     MINUTES      HOURS       DAYS        YEARS
                    -----------------------------------------------------------
   TIME STEP LENGTH  86400.      1440.0      24.000      1.0000     2.73785E-03
 STRESS PERIOD TIME 3.88800E+06  64800.      1080.0      45.000     0.12320    
         TOTAL TIME 3.97440E+06  66240.      1104.0      46.000     0.12594    
1

 SOLVING FOR HEAD 

 OUTPUT CONTROL FOR STRESS PERIOD    2   TIME STEP   46
    SAVE HEAD FOR ALL LAYERS
    SAVE DRAWDOWN FOR ALL LAYERS
    SAVE BUDGET
    PRINT HEAD FOR ALL LAYERS
    PRINT BUDGET
 UBDSV1 SAVING "         STORAGE" ON UNIT  53 AT TIME STEP 46, STRESS PERIOD   2
 UBDSV2 SAVING "   CONSTANT HEAD" ON UNIT  53 AT TIME STEP 46, STRESS PERIOD   2
 UBDSV1 SAVING "FLOW RIGHT FACE " ON UNIT  53 AT TIME STEP 46, STRESS PERIOD   2
 UBDSV1 SAVING "FLOW FRONT FACE " ON UNIT  53 AT TIME STEP 46, STRESS PERIOD   2
 UBDSV1 SAVING "FLOW LOWER FACE " ON UNIT  53 AT TIME STEP 46, STRESS PERIOD   2
1
              HEAD IN LAYER   1 AT END OF TIME STEP  46 IN STRESS PERIOD    2
  ---------------------------------------------------------------------------

            1           2           3           4           5           6           7           8           9          10
 ........................................................................................................................
   1    9.997       8.898       7.798       6.695       5.589       4.478       3.364       2.246       1.126      3.7396E-03
   2    9.997       8.898       7.798       6.695       5.589       4.478       3.364       2.246       1.126      3.7396E-03
   3    9.997       8.898       7.798       6.695       5.589       4.478       3.364       2.246       1.126      3.7396E-03
   4    9.997       8.898       7.798       6.695       5.589       4.478       3.364       2.246       1.126      3.7396E-03
   5    9.997       8.898       7.798       6.695       5.589       4.478       3.364       2.246       1.126      3.7396E-03
   6    9.997       8.898       7.798       6.695       5.589       4.478       3.364       2.246       1.126      3.7396E-03
   7    9.997       8.898       7.798       6.695       5.589       4.478       3.364       2.246       1.126      3.7396E-03
   8    9.997       8.898       7.798       6.695       5.589       4.478       3.364       2.246       1.126      3.7396E-03
   9    9.997       8.898       7.798       6.695       5.589       4.478       3.364       2.246       1.126      3.7396E-03
  10    9.997       8.898       7.798       6.695       5.589       4.478       3.364       2.246       1.126      3.7396E-03
1
              HEAD IN LAYER   2 AT END OF TIME STEP  46 IN STRESS PERIOD    2
  ---------------------------------------------------------------------------

            1           2           3           4           5           6           7           8           9          10
 ........................................................................................................................
   1    9.997       8.898       7.798       6.695       5.589       4.478       3.364       2.246       1.126      3.7396E-03
   2    9.997       8.898       7.798       6.695       5.589       4.478       3.364       2.246       1.126      3.7396E-03
   3    9.997       8.898       7.798       6.695       5.589       4.478       3.364       2.246       1.126      3.7396E-03
   4    9.997       8.898       7.798       6.695       5.589       4.478       3.364       2.246       1.126      3.7396E-03
   5    9.997       8.898       7.798       6.695       5.589       4.478       3.364       2.246       1.126      3.7396E-03
   6    9.997       8.898       7.798       6.695       5.589       4.478       3.364       2.246       1.126      3.7396E-03
   7    9.997       8.898       7.798       6.695       5.589       4.478       3.364       2.246       1.126      3.7396E-03
   8    9.997       8.898       7.798       6.695       5.589       4.478       3.364       2.246       1.126      3.7396E-03
   9    9.997       8.898       7.798       6.695       5.589       4.478       3.364       2.246       1.126      3.7396E-03
  10    9.997       8.898       7.798       6.695       5.589       4.478       3.364       2.246       1.126      3.7396E-03
1
              HEAD IN LAYER   3 AT END OF TIME STEP  46 IN STRESS PERIOD    2
  ---------------------------------------------------------------------------

            1           2           3           4           5           6           7           8           9          10
 ........................................................................................................................
   1    9.997       8.898       7.798       6.695       5.589       4.478       3.364       2.246       1.126      3.7396E-03
   2    9.997       8.898       7.798       6.695       5.589       4.478       3.364       2.246       1.126      3.7396E-03
   3    9.997       8.898       7.798       6.695       5.589       4.478       3.364       2.246       1.126      3.7396E-03
   4    9.997       8.898       7.798       6.695       5.589       4.478       3.364       2.246       1.126      3.7396E-03
   5    9.997       8.898       7.798       6.695       5.589       4.478       3.364       2.246       1.126      3.7396E-03
   6    9.997       8.898       7.798       6.695       5.589       4.478       3.364       2.246       1.126      3.7396E-03
   7    9.997       8.898       7.798       6.695       5.589       4.478       3.364       2.246       1.126      3.7396E-03
   8    9.997       8.898       7.798       6.695       5.589       4.478       3.364       2.246       1.126      3.7396E-03
   9    9.997       8.898       7.798       6.695       5.589       4.478       3.364       2.246       1.126      3.7396E-03
  10    9.997       8.898       7.798       6.695       5.589       4.478       3.364       2.246       1.126      3.7396E-03

 HEAD WILL BE SAVED ON UNIT   51 AT END OF TIME STEP   46, STRESS PERIOD    2

 DRAWDOWN WILL BE SAVED ON UNIT   52 AT END OF TIME STEP   46, STRESS PERIOD    2
1
  VOLUMETRIC BUDGET FOR ENTIRE MODEL AT END OF TIME STEP   46, STRESS PERIOD   2
  ------------------------------------------------------------------------------

     CUMULATIVE VOLUMES      L**3       RATES FOR THIS TIME STEP      L**3/T
     ------------------                 ------------------------

           IN:                                      IN:
           ---                                      ---
             STORAGE =       24902.8164               STORAGE =          11.5137
       CONSTANT HEAD =           0.0000         CONSTANT HEAD =           0.0000
               WELLS =           0.0000                 WELLS =           0.0000
       RIVER LEAKAGE =       18169.2305         RIVER LEAKAGE =         549.3336

            TOTAL IN =       43072.0469              TOTAL IN =         560.8474

          OUT:                                     OUT:
          ----                                     ----
             STORAGE =           0.0000               STORAGE =           0.0000
       CONSTANT HEAD =           0.0000         CONSTANT HEAD =           0.0000
               WELLS =           0.0000                 WELLS =           0.0000
       RIVER LEAKAGE =       43074.5508         RIVER LEAKAGE =         560.9360

           TOTAL OUT =       43074.5508             TOTAL OUT =         560.9360

            IN - OUT =          -2.5039              IN - OUT =      -8.8623E-02

 PERCENT DISCREPANCY =          -0.01     PERCENT DISCREPANCY =          -0.02






         TIME SUMMARY AT END OF TIME STEP   46 IN STRESS PERIOD    2
                    SECONDS     MINUTES      HOURS       DAYS        YEARS
                    -----------------------------------------------------------
   TIME STEP LENGTH  86400.      1440.0      24.000      1.0000     2.73785E-03
 STRESS PERIOD TIME 3.97440E+06  66240.      1104.0      46.000     0.12594    
         TOTAL TIME 4.06080E+06  67680.      1128.0      47.000     0.12868    
1

 SOLVING FOR HEAD 

 OUTPUT CONTROL FOR STRESS PERIOD    2   TIME STEP   47
    SAVE HEAD FOR ALL LAYERS
    SAVE DRAWDOWN FOR ALL LAYERS
    SAVE BUDGET
    PRINT HEAD FOR ALL LAYERS
    PRINT BUDGET
 UBDSV1 SAVING "         STORAGE" ON UNIT  53 AT TIME STEP 47, STRESS PERIOD   2
 UBDSV2 SAVING "   CONSTANT HEAD" ON UNIT  53 AT TIME STEP 47, STRESS PERIOD   2
 UBDSV1 SAVING "FLOW RIGHT FACE " ON UNIT  53 AT TIME STEP 47, STRESS PERIOD   2
 UBDSV1 SAVING "FLOW FRONT FACE " ON UNIT  53 AT TIME STEP 47, STRESS PERIOD   2
 UBDSV1 SAVING "FLOW LOWER FACE " ON UNIT  53 AT TIME STEP 47, STRESS PERIOD   2
1
              HEAD IN LAYER   1 AT END OF TIME STEP  47 IN STRESS PERIOD    2
  ---------------------------------------------------------------------------

            1           2           3           4           5           6           7           8           9          10
 ........................................................................................................................
   1    9.997       8.897       7.796       6.692       5.585       4.475       3.361       2.244       1.124      3.7354E-03
   2    9.997       8.897       7.796       6.692       5.585       4.475       3.361       2.244       1.124      3.7354E-03
   3    9.997       8.897       7.796       6.692       5.585       4.475       3.361       2.244       1.124      3.7354E-03
   4    9.997       8.897       7.796       6.692       5.585       4.475       3.361       2.244       1.124      3.7354E-03
   5    9.997       8.897       7.796       6.692       5.585       4.475       3.361       2.244       1.124      3.7354E-03
   6    9.997       8.897       7.796       6.692       5.585       4.475       3.361       2.244       1.124      3.7354E-03
   7    9.997       8.897       7.796       6.692       5.585       4.475       3.361       2.244       1.124      3.7354E-03
   8    9.997       8.897       7.796       6.692       5.585       4.475       3.361       2.244       1.124      3.7354E-03
   9    9.997       8.897       7.796       6.692       5.585       4.475       3.361       2.244       1.124      3.7354E-03
  10    9.997       8.897       7.796       6.692       5.585       4.475       3.361       2.244       1.124      3.7354E-03
1
              HEAD IN LAYER   2 AT END OF TIME STEP  47 IN STRESS PERIOD    2
  ---------------------------------------------------------------------------

            1           2           3           4           5           6           7           8           9          10
 ........................................................................................................................
   1    9.997       8.897       7.796       6.692       5.585       4.475       3.361       2.244       1.124      3.7354E-03
   2    9.997       8.897       7.796       6.692       5.585       4.475       3.361       2.244       1.124      3.7354E-03
   3    9.997       8.897       7.796       6.692       5.585       4.475       3.361       2.244       1.124      3.7354E-03
   4    9.997       8.897       7.796       6.692       5.585       4.475       3.361       2.244       1.124      3.7354E-03
   5    9.997       8.897       7.796       6.692       5.585       4.475       3.361       2.244       1.124      3.7354E-03
   6    9.997       8.897       7.796       6.692       5.585       4.475       3.361       2.244       1.124      3.7354E-03
   7    9.997       8.897       7.796       6.692       5.585       4.475       3.361       2.244       1.124      3.7354E-03
   8    9.997       8.897       7.796       6.692       5.585       4.475       3.361       2.244       1.124      3.7354E-03
   9    9.997       8.897       7.796       6.692       5.585       4.475       3.361       2.244       1.124      3.7354E-03
  10    9.997       8.897       7.796       6.692       5.585       4.475       3.361       2.244       1.124      3.7354E-03
1
              HEAD IN LAYER   3 AT END OF TIME STEP  47 IN STRESS PERIOD    2
  ---------------------------------------------------------------------------

            1           2           3           4           5           6           7           8           9          10
 ........................................................................................................................
   1    9.997       8.897       7.796       6.692       5.585       4.475       3.361       2.244       1.124      3.7354E-03
   2    9.997       8.897       7.796       6.692       5.585       4.475       3.361       2.244       1.124      3.7354E-03
   3    9.997       8.897       7.796       6.692       5.585       4.475       3.361       2.244       1.124      3.7354E-03
   4    9.997       8.897       7.796       6.692       5.585       4.475       3.361       2.244       1.124      3.7354E-03
   5    9.997       8.897       7.796       6.692       5.585       4.475       3.361       2.244       1.124      3.7354E-03
   6    9.997       8.897       7.796       6.692       5.585       4.475       3.361       2.244       1.124      3.7354E-03
   7    9.997       8.897       7.796       6.692       5.585       4.475       3.361       2.244       1.124      3.7354E-03
   8    9.997       8.897       7.796       6.692       5.585       4.475       3.361       2.244       1.124      3.7354E-03
   9    9.997       8.897       7.796       6.692       5.585       4.475       3.361       2.244       1.124      3.7354E-03
  10    9.997       8.897       7.796       6.692       5.585       4.475       3.361       2.244       1.124      3.7354E-03

 HEAD WILL BE SAVED ON UNIT   51 AT END OF TIME STEP   47, STRESS PERIOD    2

 DRAWDOWN WILL BE SAVED ON UNIT   52 AT END OF TIME STEP   47, STRESS PERIOD    2
1
  VOLUMETRIC BUDGET FOR ENTIRE MODEL AT END OF TIME STEP   47, STRESS PERIOD   2
  ------------------------------------------------------------------------------

     CUMULATIVE VOLUMES      L**3       RATES FOR THIS TIME STEP      L**3/T
     ------------------                 ------------------------

           IN:                                      IN:
           ---                                      ---
             STORAGE =       24913.0918               STORAGE =          10.2754
       CONSTANT HEAD =           0.0000         CONSTANT HEAD =           0.0000
               WELLS =           0.0000                 WELLS =           0.0000
       RIVER LEAKAGE =       18719.1816         RIVER LEAKAGE =         549.9506

            TOTAL IN =       43632.2734              TOTAL IN =         560.2260

          OUT:                                     OUT:
          ----                                     ----
             STORAGE =       1.3608E-05               STORAGE =       1.3608E-05
       CONSTANT HEAD =           0.0000         CONSTANT HEAD =           0.0000
               WELLS =           0.0000                 WELLS =           0.0000
       RIVER LEAKAGE =       43634.8672         RIVER LEAKAGE =         560.3160

           TOTAL OUT =       43634.8672             TOTAL OUT =         560.3160

            IN - OUT =          -2.5938              IN - OUT =      -9.0088E-02

 PERCENT DISCREPANCY =          -0.01     PERCENT DISCREPANCY =          -0.02






         TIME SUMMARY AT END OF TIME STEP   47 IN STRESS PERIOD    2
                    SECONDS     MINUTES      HOURS       DAYS        YEARS
                    -----------------------------------------------------------
   TIME STEP LENGTH  86400.      1440.0      24.000      1.0000     2.73785E-03
 STRESS PERIOD TIME 4.06080E+06  67680.      1128.0      47.000     0.12868    
         TOTAL TIME 4.14720E+06  69120.      1152.0      48.000     0.13142    
1

 SOLVING FOR HEAD 

 OUTPUT CONTROL FOR STRESS PERIOD    2   TIME STEP   48
    SAVE HEAD FOR ALL LAYERS
    SAVE DRAWDOWN FOR ALL LAYERS
    SAVE BUDGET
    PRINT HEAD FOR ALL LAYERS
    PRINT BUDGET
 UBDSV1 SAVING "         STORAGE" ON UNIT  53 AT TIME STEP 48, STRESS PERIOD   2
 UBDSV2 SAVING "   CONSTANT HEAD" ON UNIT  53 AT TIME STEP 48, STRESS PERIOD   2
 UBDSV1 SAVING "FLOW RIGHT FACE " ON UNIT  53 AT TIME STEP 48, STRESS PERIOD   2
 UBDSV1 SAVING "FLOW FRONT FACE " ON UNIT  53 AT TIME STEP 48, STRESS PERIOD   2
 UBDSV1 SAVING "FLOW LOWER FACE " ON UNIT  53 AT TIME STEP 48, STRESS PERIOD   2
1
              HEAD IN LAYER   1 AT END OF TIME STEP  48 IN STRESS PERIOD    2
  ---------------------------------------------------------------------------

            1           2           3           4           5           6           7           8           9          10
 ........................................................................................................................
   1    9.997       8.896       7.793       6.689       5.582       4.472       3.358       2.242       1.123      3.7318E-03
   2    9.997       8.896       7.793       6.689       5.582       4.472       3.358       2.242       1.123      3.7318E-03
   3    9.997       8.896       7.793       6.689       5.582       4.472       3.358       2.242       1.123      3.7318E-03
   4    9.997       8.896       7.793       6.689       5.582       4.472       3.358       2.242       1.123      3.7318E-03
   5    9.997       8.896       7.793       6.689       5.582       4.472       3.358       2.242       1.123      3.7318E-03
   6    9.997       8.896       7.793       6.689       5.582       4.472       3.358       2.242       1.123      3.7318E-03
   7    9.997       8.896       7.793       6.689       5.582       4.472       3.358       2.242       1.123      3.7318E-03
   8    9.997       8.896       7.793       6.689       5.582       4.472       3.358       2.242       1.123      3.7318E-03
   9    9.997       8.896       7.793       6.689       5.582       4.472       3.358       2.242       1.123      3.7318E-03
  10    9.997       8.896       7.793       6.689       5.582       4.472       3.358       2.242       1.123      3.7318E-03
1
              HEAD IN LAYER   2 AT END OF TIME STEP  48 IN STRESS PERIOD    2
  ---------------------------------------------------------------------------

            1           2           3           4           5           6           7           8           9          10
 ........................................................................................................................
   1    9.997       8.896       7.793       6.689       5.582       4.472       3.358       2.242       1.123      3.7318E-03
   2    9.997       8.896       7.793       6.689       5.582       4.472       3.358       2.242       1.123      3.7318E-03
   3    9.997       8.896       7.793       6.689       5.582       4.472       3.358       2.242       1.123      3.7318E-03
   4    9.997       8.896       7.793       6.689       5.582       4.472       3.358       2.242       1.123      3.7318E-03
   5    9.997       8.896       7.793       6.689       5.582       4.472       3.358       2.242       1.123      3.7318E-03
   6    9.997       8.896       7.793       6.689       5.582       4.472       3.358       2.242       1.123      3.7318E-03
   7    9.997       8.896       7.793       6.689       5.582       4.472       3.358       2.242       1.123      3.7318E-03
   8    9.997       8.896       7.793       6.689       5.582       4.472       3.358       2.242       1.123      3.7318E-03
   9    9.997       8.896       7.793       6.689       5.582       4.472       3.358       2.242       1.123      3.7318E-03
  10    9.997       8.896       7.793       6.689       5.582       4.472       3.358       2.242       1.123      3.7318E-03
1
              HEAD IN LAYER   3 AT END OF TIME STEP  48 IN STRESS PERIOD    2
  ---------------------------------------------------------------------------

            1           2           3           4           5           6           7           8           9          10
 ........................................................................................................................
   1    9.997       8.896       7.793       6.689       5.582       4.472       3.358       2.242       1.123      3.7318E-03
   2    9.997       8.896       7.793       6.689       5.582       4.472       3.358       2.242       1.123      3.7318E-03
   3    9.997       8.896       7.793       6.689       5.582       4.472       3.358       2.242       1.123      3.7318E-03
   4    9.997       8.896       7.793       6.689       5.582       4.472       3.358       2.242       1.123      3.7318E-03
   5    9.997       8.896       7.793       6.689       5.582       4.472       3.358       2.242       1.123      3.7318E-03
   6    9.997       8.896       7.793       6.689       5.582       4.472       3.358       2.242       1.123      3.7318E-03
   7    9.997       8.896       7.793       6.689       5.582       4.472       3.358       2.242       1.123      3.7318E-03
   8    9.997       8.896       7.793       6.689       5.582       4.472       3.358       2.242       1.123      3.7318E-03
   9    9.997       8.896       7.793       6.689       5.582       4.472       3.358       2.242       1.123      3.7318E-03
  10    9.997       8.896       7.793       6.689       5.582       4.472       3.358       2.242       1.123      3.7318E-03

 HEAD WILL BE SAVED ON UNIT   51 AT END OF TIME STEP   48, STRESS PERIOD    2

 DRAWDOWN WILL BE SAVED ON UNIT   52 AT END OF TIME STEP   48, STRESS PERIOD    2
1
  VOLUMETRIC BUDGET FOR ENTIRE MODEL AT END OF TIME STEP   48, STRESS PERIOD   2
  ------------------------------------------------------------------------------

     CUMULATIVE VOLUMES      L**3       RATES FOR THIS TIME STEP      L**3/T
     ------------------                 ------------------------

           IN:                                      IN:
           ---                                      ---
             STORAGE =       24922.2617               STORAGE =           9.1699
       CONSTANT HEAD =           0.0000         CONSTANT HEAD =           0.0000
               WELLS =           0.0000                 WELLS =           0.0000
       RIVER LEAKAGE =       19269.6836         RIVER LEAKAGE =         550.5013

            TOTAL IN =       44191.9453              TOTAL IN =         559.6712

          OUT:                                     OUT:
          ----                                     ----
             STORAGE =       2.3954E-05               STORAGE =       1.0345E-05
       CONSTANT HEAD =           0.0000         CONSTANT HEAD =           0.0000
               WELLS =           0.0000                 WELLS =           0.0000
       RIVER LEAKAGE =       44194.6289         RIVER LEAKAGE =         559.7635

           TOTAL OUT =       44194.6289             TOTAL OUT =         559.7635

            IN - OUT =          -2.6836              IN - OUT =      -9.2285E-02

 PERCENT DISCREPANCY =          -0.01     PERCENT DISCREPANCY =          -0.02






         TIME SUMMARY AT END OF TIME STEP   48 IN STRESS PERIOD    2
                    SECONDS     MINUTES      HOURS       DAYS        YEARS
                    -----------------------------------------------------------
   TIME STEP LENGTH  86400.      1440.0      24.000      1.0000     2.73785E-03
 STRESS PERIOD TIME 4.14720E+06  69120.      1152.0      48.000     0.13142    
         TOTAL TIME 4.23360E+06  70560.      1176.0      49.000     0.13415    
1

 SOLVING FOR HEAD 

 OUTPUT CONTROL FOR STRESS PERIOD    2   TIME STEP   49
    SAVE HEAD FOR ALL LAYERS
    SAVE DRAWDOWN FOR ALL LAYERS
    SAVE BUDGET
    PRINT HEAD FOR ALL LAYERS
    PRINT BUDGET
 UBDSV1 SAVING "         STORAGE" ON UNIT  53 AT TIME STEP 49, STRESS PERIOD   2
 UBDSV2 SAVING "   CONSTANT HEAD" ON UNIT  53 AT TIME STEP 49, STRESS PERIOD   2
 UBDSV1 SAVING "FLOW RIGHT FACE " ON UNIT  53 AT TIME STEP 49, STRESS PERIOD   2
 UBDSV1 SAVING "FLOW FRONT FACE " ON UNIT  53 AT TIME STEP 49, STRESS PERIOD   2
 UBDSV1 SAVING "FLOW LOWER FACE " ON UNIT  53 AT TIME STEP 49, STRESS PERIOD   2
1
              HEAD IN LAYER   1 AT END OF TIME STEP  49 IN STRESS PERIOD    2
  ---------------------------------------------------------------------------

            1           2           3           4           5           6           7           8           9          10
 ........................................................................................................................
   1    9.997       8.895       7.792       6.687       5.579       4.469       3.356       2.240       1.122      3.7285E-03
   2    9.997       8.895       7.792       6.687       5.579       4.469       3.356       2.240       1.122      3.7285E-03
   3    9.997       8.895       7.792       6.687       5.579       4.469       3.356       2.240       1.122      3.7285E-03
   4    9.997       8.895       7.792       6.687       5.579       4.469       3.356       2.240       1.122      3.7285E-03
   5    9.997       8.895       7.792       6.687       5.579       4.469       3.356       2.240       1.122      3.7285E-03
   6    9.997       8.895       7.792       6.687       5.579       4.469       3.356       2.240       1.122      3.7285E-03
   7    9.997       8.895       7.792       6.687       5.579       4.469       3.356       2.240       1.122      3.7285E-03
   8    9.997       8.895       7.792       6.687       5.579       4.469       3.356       2.240       1.122      3.7285E-03
   9    9.997       8.895       7.792       6.687       5.579       4.469       3.356       2.240       1.122      3.7285E-03
  10    9.997       8.895       7.792       6.687       5.579       4.469       3.356       2.240       1.122      3.7285E-03
1
              HEAD IN LAYER   2 AT END OF TIME STEP  49 IN STRESS PERIOD    2
  ---------------------------------------------------------------------------

            1           2           3           4           5           6           7           8           9          10
 ........................................................................................................................
   1    9.997       8.895       7.792       6.687       5.579       4.469       3.356       2.240       1.122      3.7285E-03
   2    9.997       8.895       7.792       6.687       5.579       4.469       3.356       2.240       1.122      3.7285E-03
   3    9.997       8.895       7.792       6.687       5.579       4.469       3.356       2.240       1.122      3.7285E-03
   4    9.997       8.895       7.792       6.687       5.579       4.469       3.356       2.240       1.122      3.7285E-03
   5    9.997       8.895       7.792       6.687       5.579       4.469       3.356       2.240       1.122      3.7285E-03
   6    9.997       8.895       7.792       6.687       5.579       4.469       3.356       2.240       1.122      3.7285E-03
   7    9.997       8.895       7.792       6.687       5.579       4.469       3.356       2.240       1.122      3.7285E-03
   8    9.997       8.895       7.792       6.687       5.579       4.469       3.356       2.240       1.122      3.7285E-03
   9    9.997       8.895       7.792       6.687       5.579       4.469       3.356       2.240       1.122      3.7285E-03
  10    9.997       8.895       7.792       6.687       5.579       4.469       3.356       2.240       1.122      3.7285E-03
1
              HEAD IN LAYER   3 AT END OF TIME STEP  49 IN STRESS PERIOD    2
  ---------------------------------------------------------------------------

            1           2           3           4           5           6           7           8           9          10
 ........................................................................................................................
   1    9.997       8.895       7.792       6.687       5.579       4.469       3.356       2.240       1.122      3.7285E-03
   2    9.997       8.895       7.792       6.687       5.579       4.469       3.356       2.240       1.122      3.7285E-03
   3    9.997       8.895       7.792       6.687       5.579       4.469       3.356       2.240       1.122      3.7285E-03
   4    9.997       8.895       7.792       6.687       5.579       4.469       3.356       2.240       1.122      3.7285E-03
   5    9.997       8.895       7.792       6.687       5.579       4.469       3.356       2.240       1.122      3.7285E-03
   6    9.997       8.895       7.792       6.687       5.579       4.469       3.356       2.240       1.122      3.7285E-03
   7    9.997       8.895       7.792       6.687       5.579       4.469       3.356       2.240       1.122      3.7285E-03
   8    9.997       8.895       7.792       6.687       5.579       4.469       3.356       2.240       1.122      3.7285E-03
   9    9.997       8.895       7.792       6.687       5.579       4.469       3.356       2.240       1.122      3.7285E-03
  10    9.997       8.895       7.792       6.687       5.579       4.469       3.356       2.240       1.122      3.7285E-03

 HEAD WILL BE SAVED ON UNIT   51 AT END OF TIME STEP   49, STRESS PERIOD    2

 DRAWDOWN WILL BE SAVED ON UNIT   52 AT END OF TIME STEP   49, STRESS PERIOD    2
1
  VOLUMETRIC BUDGET FOR ENTIRE MODEL AT END OF TIME STEP   49, STRESS PERIOD   2
  ------------------------------------------------------------------------------

     CUMULATIVE VOLUMES      L**3       RATES FOR THIS TIME STEP      L**3/T
     ------------------                 ------------------------

           IN:                                      IN:
           ---                                      ---
             STORAGE =       24930.4473               STORAGE =           8.1847
       CONSTANT HEAD =           0.0000         CONSTANT HEAD =           0.0000
               WELLS =           0.0000                 WELLS =           0.0000
       RIVER LEAKAGE =       19820.6758         RIVER LEAKAGE =         550.9926

            TOTAL IN =       44751.1250              TOTAL IN =         559.1773

          OUT:                                     OUT:
          ----                                     ----
             STORAGE =       9.7074E-05               STORAGE =       7.3120E-05
       CONSTANT HEAD =           0.0000         CONSTANT HEAD =           0.0000
               WELLS =           0.0000                 WELLS =           0.0000
       RIVER LEAKAGE =       44753.8984         RIVER LEAKAGE =         559.2709

           TOTAL OUT =       44753.8984             TOTAL OUT =         559.2709

            IN - OUT =          -2.7734              IN - OUT =      -9.3628E-02

 PERCENT DISCREPANCY =          -0.01     PERCENT DISCREPANCY =          -0.02






         TIME SUMMARY AT END OF TIME STEP   49 IN STRESS PERIOD    2
                    SECONDS     MINUTES      HOURS       DAYS        YEARS
                    -----------------------------------------------------------
   TIME STEP LENGTH  86400.      1440.0      24.000      1.0000     2.73785E-03
 STRESS PERIOD TIME 4.23360E+06  70560.      1176.0      49.000     0.13415    
         TOTAL TIME 4.32000E+06  72000.      1200.0      50.000     0.13689    
1

 SOLVING FOR HEAD 

 OUTPUT CONTROL FOR STRESS PERIOD    2   TIME STEP   50
    SAVE HEAD FOR ALL LAYERS
    SAVE DRAWDOWN FOR ALL LAYERS
    SAVE BUDGET
    PRINT HEAD FOR ALL LAYERS
    PRINT BUDGET
 UBDSV1 SAVING "         STORAGE" ON UNIT  53 AT TIME STEP 50, STRESS PERIOD   2
 UBDSV2 SAVING "   CONSTANT HEAD" ON UNIT  53 AT TIME STEP 50, STRESS PERIOD   2
 UBDSV1 SAVING "FLOW RIGHT FACE " ON UNIT  53 AT TIME STEP 50, STRESS PERIOD   2
 UBDSV1 SAVING "FLOW FRONT FACE " ON UNIT  53 AT TIME STEP 50, STRESS PERIOD   2
 UBDSV1 SAVING "FLOW LOWER FACE " ON UNIT  53 AT TIME STEP 50, STRESS PERIOD   2
1
              HEAD IN LAYER   1 AT END OF TIME STEP  50 IN STRESS PERIOD    2
  ---------------------------------------------------------------------------

            1           2           3           4           5           6           7           8           9          10
 ........................................................................................................................
   1    9.997       8.894       7.790       6.684       5.577       4.466       3.353       2.238       1.121      3.7255E-03
   2    9.997       8.894       7.790       6.684       5.577       4.466       3.353       2.238       1.121      3.7255E-03
   3    9.997       8.894       7.790       6.684       5.577       4.466       3.353       2.238       1.121      3.7255E-03
   4    9.997       8.894       7.790       6.684       5.577       4.466       3.353       2.238       1.121      3.7255E-03
   5    9.997       8.894       7.790       6.684       5.577       4.466       3.353       2.238       1.121      3.7255E-03
   6    9.997       8.894       7.790       6.684       5.577       4.466       3.353       2.238       1.121      3.7255E-03
   7    9.997       8.894       7.790       6.684       5.577       4.466       3.353       2.238       1.121      3.7255E-03
   8    9.997       8.894       7.790       6.684       5.577       4.466       3.353       2.238       1.121      3.7255E-03
   9    9.997       8.894       7.790       6.684       5.577       4.466       3.353       2.238       1.121      3.7255E-03
  10    9.997       8.894       7.790       6.684       5.577       4.466       3.353       2.238       1.121      3.7255E-03
1
              HEAD IN LAYER   2 AT END OF TIME STEP  50 IN STRESS PERIOD    2
  ---------------------------------------------------------------------------

            1           2           3           4           5           6           7           8           9          10
 ........................................................................................................................
   1    9.997       8.894       7.790       6.684       5.577       4.466       3.353       2.238       1.121      3.7255E-03
   2    9.997       8.894       7.790       6.684       5.577       4.466       3.353       2.238       1.121      3.7255E-03
   3    9.997       8.894       7.790       6.684       5.577       4.466       3.353       2.238       1.121      3.7255E-03
   4    9.997       8.894       7.790       6.684       5.577       4.466       3.353       2.238       1.121      3.7255E-03
   5    9.997       8.894       7.790       6.684       5.577       4.466       3.353       2.238       1.121      3.7255E-03
   6    9.997       8.894       7.790       6.684       5.577       4.466       3.353       2.238       1.121      3.7255E-03
   7    9.997       8.894       7.790       6.684       5.577       4.466       3.353       2.238       1.121      3.7255E-03
   8    9.997       8.894       7.790       6.684       5.577       4.466       3.353       2.238       1.121      3.7255E-03
   9    9.997       8.894       7.790       6.684       5.577       4.466       3.353       2.238       1.121      3.7255E-03
  10    9.997       8.894       7.790       6.684       5.577       4.466       3.353       2.238       1.121      3.7255E-03
1
              HEAD IN LAYER   3 AT END OF TIME STEP  50 IN STRESS PERIOD    2
  ---------------------------------------------------------------------------

            1           2           3           4           5           6           7           8           9          10
 ........................................................................................................................
   1    9.997       8.894       7.790       6.684       5.577       4.466       3.353       2.238       1.121      3.7255E-03
   2    9.997       8.894       7.790       6.684       5.577       4.466       3.353       2.238       1.121      3.7255E-03
   3    9.997       8.894       7.790       6.684       5.577       4.466       3.353       2.238       1.121      3.7255E-03
   4    9.997       8.894       7.790       6.684       5.577       4.466       3.353       2.238       1.121      3.7255E-03
   5    9.997       8.894       7.790       6.684       5.577       4.466       3.353       2.238       1.121      3.7255E-03
   6    9.997       8.894       7.790       6.684       5.577       4.466       3.353       2.238       1.121      3.7255E-03
   7    9.997       8.894       7.790       6.684       5.577       4.466       3.353       2.238       1.121      3.7255E-03
   8    9.997       8.894       7.790       6.684       5.577       4.466       3.353       2.238       1.121      3.7255E-03
   9    9.997       8.894       7.790       6.684       5.577       4.466       3.353       2.238       1.121      3.7255E-03
  10    9.997       8.894       7.790       6.684       5.577       4.466       3.353       2.238       1.121      3.7255E-03

 HEAD WILL BE SAVED ON UNIT   51 AT END OF TIME STEP   50, STRESS PERIOD    2

 DRAWDOWN WILL BE SAVED ON UNIT   52 AT END OF TIME STEP   50, STRESS PERIOD    2
1
  VOLUMETRIC BUDGET FOR ENTIRE MODEL AT END OF TIME STEP   50, STRESS PERIOD   2
  ------------------------------------------------------------------------------

     CUMULATIVE VOLUMES      L**3       RATES FOR THIS TIME STEP      L**3/T
     ------------------                 ------------------------

           IN:                                      IN:
           ---                                      ---
             STORAGE =       24937.7520               STORAGE =           7.3044
       CONSTANT HEAD =           0.0000         CONSTANT HEAD =           0.0000
               WELLS =           0.0000                 WELLS =           0.0000
       RIVER LEAKAGE =       20372.1074         RIVER LEAKAGE =         551.4313

            TOTAL IN =       45309.8594              TOTAL IN =         558.7357

          OUT:                                     OUT:
          ----                                     ----
             STORAGE =       2.9138E-04               STORAGE =       1.9431E-04
       CONSTANT HEAD =           0.0000         CONSTANT HEAD =           0.0000
               WELLS =           0.0000                 WELLS =           0.0000
       RIVER LEAKAGE =       45312.7305         RIVER LEAKAGE =         558.8307

           TOTAL OUT =       45312.7305             TOTAL OUT =         558.8309

            IN - OUT =          -2.8711              IN - OUT =      -9.5154E-02

 PERCENT DISCREPANCY =          -0.01     PERCENT DISCREPANCY =          -0.02






         TIME SUMMARY AT END OF TIME STEP   50 IN STRESS PERIOD    2
                    SECONDS     MINUTES      HOURS       DAYS        YEARS
                    -----------------------------------------------------------
   TIME STEP LENGTH  86400.      1440.0      24.000      1.0000     2.73785E-03
 STRESS PERIOD TIME 4.32000E+06  72000.      1200.0      50.000     0.13689    
         TOTAL TIME 4.40640E+06  73440.      1224.0      51.000     0.13963    
1

 SOLVING FOR HEAD 

 OUTPUT CONTROL FOR STRESS PERIOD    2   TIME STEP   51
    SAVE HEAD FOR ALL LAYERS
    SAVE DRAWDOWN FOR ALL LAYERS
    SAVE BUDGET
    PRINT HEAD FOR ALL LAYERS
    PRINT BUDGET
 UBDSV1 SAVING "         STORAGE" ON UNIT  53 AT TIME STEP 51, STRESS PERIOD   2
 UBDSV2 SAVING "   CONSTANT HEAD" ON UNIT  53 AT TIME STEP 51, STRESS PERIOD   2
 UBDSV1 SAVING "FLOW RIGHT FACE " ON UNIT  53 AT TIME STEP 51, STRESS PERIOD   2
 UBDSV1 SAVING "FLOW FRONT FACE " ON UNIT  53 AT TIME STEP 51, STRESS PERIOD   2
 UBDSV1 SAVING "FLOW LOWER FACE " ON UNIT  53 AT TIME STEP 51, STRESS PERIOD   2
1
              HEAD IN LAYER   1 AT END OF TIME STEP  51 IN STRESS PERIOD    2
  ---------------------------------------------------------------------------

            1           2           3           4           5           6           7           8           9          10
 ........................................................................................................................
   1    9.997       8.893       7.788       6.682       5.574       4.464       3.351       2.237       1.121      3.7229E-03
   2    9.997       8.893       7.788       6.682       5.574       4.464       3.351       2.237       1.121      3.7229E-03
   3    9.997       8.893       7.788       6.682       5.574       4.464       3.351       2.237       1.121      3.7229E-03
   4    9.997       8.893       7.788       6.682       5.574       4.464       3.351       2.237       1.121      3.7229E-03
   5    9.997       8.893       7.788       6.682       5.574       4.464       3.351       2.237       1.121      3.7229E-03
   6    9.997       8.893       7.788       6.682       5.574       4.464       3.351       2.237       1.121      3.7229E-03
   7    9.997       8.893       7.788       6.682       5.574       4.464       3.351       2.237       1.121      3.7229E-03
   8    9.997       8.893       7.788       6.682       5.574       4.464       3.351       2.237       1.121      3.7229E-03
   9    9.997       8.893       7.788       6.682       5.574       4.464       3.351       2.237       1.121      3.7229E-03
  10    9.997       8.893       7.788       6.682       5.574       4.464       3.351       2.237       1.121      3.7229E-03
1
              HEAD IN LAYER   2 AT END OF TIME STEP  51 IN STRESS PERIOD    2
  ---------------------------------------------------------------------------

            1           2           3           4           5           6           7           8           9          10
 ........................................................................................................................
   1    9.997       8.893       7.788       6.682       5.574       4.464       3.351       2.237       1.121      3.7229E-03
   2    9.997       8.893       7.788       6.682       5.574       4.464       3.351       2.237       1.121      3.7229E-03
   3    9.997       8.893       7.788       6.682       5.574       4.464       3.351       2.237       1.121      3.7229E-03
   4    9.997       8.893       7.788       6.682       5.574       4.464       3.351       2.237       1.121      3.7229E-03
   5    9.997       8.893       7.788       6.682       5.574       4.464       3.351       2.237       1.121      3.7229E-03
   6    9.997       8.893       7.788       6.682       5.574       4.464       3.351       2.237       1.121      3.7229E-03
   7    9.997       8.893       7.788       6.682       5.574       4.464       3.351       2.237       1.121      3.7229E-03
   8    9.997       8.893       7.788       6.682       5.574       4.464       3.351       2.237       1.121      3.7229E-03
   9    9.997       8.893       7.788       6.682       5.574       4.464       3.351       2.237       1.121      3.7229E-03
  10    9.997       8.893       7.788       6.682       5.574       4.464       3.351       2.237       1.121      3.7229E-03
1
              HEAD IN LAYER   3 AT END OF TIME STEP  51 IN STRESS PERIOD    2
  ---------------------------------------------------------------------------

            1           2           3           4           5           6           7           8           9          10
 ........................................................................................................................
   1    9.997       8.893       7.788       6.682       5.574       4.464       3.351       2.237       1.121      3.7229E-03
   2    9.997       8.893       7.788       6.682       5.574       4.464       3.351       2.237       1.121      3.7229E-03
   3    9.997       8.893       7.788       6.682       5.574       4.464       3.351       2.237       1.121      3.7229E-03
   4    9.997       8.893       7.788       6.682       5.574       4.464       3.351       2.237       1.121      3.7229E-03
   5    9.997       8.893       7.788       6.682       5.574       4.464       3.351       2.237       1.121      3.7229E-03
   6    9.997       8.893       7.788       6.682       5.574       4.464       3.351       2.237       1.121      3.7229E-03
   7    9.997       8.893       7.788       6.682       5.574       4.464       3.351       2.237       1.121      3.7229E-03
   8    9.997       8.893       7.788       6.682       5.574       4.464       3.351       2.237       1.121      3.7229E-03
   9    9.997       8.893       7.788       6.682       5.574       4.464       3.351       2.237       1.121      3.7229E-03
  10    9.997       8.893       7.788       6.682       5.574       4.464       3.351       2.237       1.121      3.7229E-03

 HEAD WILL BE SAVED ON UNIT   51 AT END OF TIME STEP   51, STRESS PERIOD    2

 DRAWDOWN WILL BE SAVED ON UNIT   52 AT END OF TIME STEP   51, STRESS PERIOD    2
1
  VOLUMETRIC BUDGET FOR ENTIRE MODEL AT END OF TIME STEP   51, STRESS PERIOD   2
  ------------------------------------------------------------------------------

     CUMULATIVE VOLUMES      L**3       RATES FOR THIS TIME STEP      L**3/T
     ------------------                 ------------------------

           IN:                                      IN:
           ---                                      ---
             STORAGE =       24944.2715               STORAGE =           6.5194
       CONSTANT HEAD =           0.0000         CONSTANT HEAD =           0.0000
               WELLS =           0.0000                 WELLS =           0.0000
       RIVER LEAKAGE =       20923.9297         RIVER LEAKAGE =         551.8229

            TOTAL IN =       45868.2031              TOTAL IN =         558.3423

          OUT:                                     OUT:
          ----                                     ----
             STORAGE =       2.9138E-04               STORAGE =           0.0000
       CONSTANT HEAD =           0.0000         CONSTANT HEAD =           0.0000
               WELLS =           0.0000                 WELLS =           0.0000
       RIVER LEAKAGE =       45871.1680         RIVER LEAKAGE =         558.4383

           TOTAL OUT =       45871.1680             TOTAL OUT =         558.4383

            IN - OUT =          -2.9648              IN - OUT =      -9.6008E-02

 PERCENT DISCREPANCY =          -0.01     PERCENT DISCREPANCY =          -0.02






         TIME SUMMARY AT END OF TIME STEP   51 IN STRESS PERIOD    2
                    SECONDS     MINUTES      HOURS       DAYS        YEARS
                    -----------------------------------------------------------
   TIME STEP LENGTH  86400.      1440.0      24.000      1.0000     2.73785E-03
 STRESS PERIOD TIME 4.40640E+06  73440.      1224.0      51.000     0.13963    
         TOTAL TIME 4.49280E+06  74880.      1248.0      52.000     0.14237    
1

 SOLVING FOR HEAD 

 OUTPUT CONTROL FOR STRESS PERIOD    2   TIME STEP   52
    SAVE HEAD FOR ALL LAYERS
    SAVE DRAWDOWN FOR ALL LAYERS
    SAVE BUDGET
    PRINT HEAD FOR ALL LAYERS
    PRINT BUDGET
 UBDSV1 SAVING "         STORAGE" ON UNIT  53 AT TIME STEP 52, STRESS PERIOD   2
 UBDSV2 SAVING "   CONSTANT HEAD" ON UNIT  53 AT TIME STEP 52, STRESS PERIOD   2
 UBDSV1 SAVING "FLOW RIGHT FACE " ON UNIT  53 AT TIME STEP 52, STRESS PERIOD   2
 UBDSV1 SAVING "FLOW FRONT FACE " ON UNIT  53 AT TIME STEP 52, STRESS PERIOD   2
 UBDSV1 SAVING "FLOW LOWER FACE " ON UNIT  53 AT TIME STEP 52, STRESS PERIOD   2
1
              HEAD IN LAYER   1 AT END OF TIME STEP  52 IN STRESS PERIOD    2
  ---------------------------------------------------------------------------

            1           2           3           4           5           6           7           8           9          10
 ........................................................................................................................
   1    9.997       8.892       7.787       6.681       5.572       4.462       3.350       2.235       1.120      3.7206E-03
   2    9.997       8.892       7.787       6.681       5.572       4.462       3.350       2.235       1.120      3.7206E-03
   3    9.997       8.892       7.787       6.681       5.572       4.462       3.350       2.235       1.120      3.7206E-03
   4    9.997       8.892       7.787       6.681       5.572       4.462       3.350       2.235       1.120      3.7206E-03
   5    9.997       8.892       7.787       6.681       5.572       4.462       3.350       2.235       1.120      3.7206E-03
   6    9.997       8.892       7.787       6.681       5.572       4.462       3.350       2.235       1.120      3.7206E-03
   7    9.997       8.892       7.787       6.681       5.572       4.462       3.350       2.235       1.120      3.7206E-03
   8    9.997       8.892       7.787       6.681       5.572       4.462       3.350       2.235       1.120      3.7206E-03
   9    9.997       8.892       7.787       6.681       5.572       4.462       3.350       2.235       1.120      3.7206E-03
  10    9.997       8.892       7.787       6.681       5.572       4.462       3.350       2.235       1.120      3.7206E-03
1
              HEAD IN LAYER   2 AT END OF TIME STEP  52 IN STRESS PERIOD    2
  ---------------------------------------------------------------------------

            1           2           3           4           5           6           7           8           9          10
 ........................................................................................................................
   1    9.997       8.892       7.787       6.681       5.572       4.462       3.350       2.235       1.120      3.7206E-03
   2    9.997       8.892       7.787       6.681       5.572       4.462       3.350       2.235       1.120      3.7206E-03
   3    9.997       8.892       7.787       6.681       5.572       4.462       3.350       2.235       1.120      3.7206E-03
   4    9.997       8.892       7.787       6.681       5.572       4.462       3.350       2.235       1.120      3.7206E-03
   5    9.997       8.892       7.787       6.681       5.572       4.462       3.350       2.235       1.120      3.7206E-03
   6    9.997       8.892       7.787       6.681       5.572       4.462       3.350       2.235       1.120      3.7206E-03
   7    9.997       8.892       7.787       6.681       5.572       4.462       3.350       2.235       1.120      3.7206E-03
   8    9.997       8.892       7.787       6.681       5.572       4.462       3.350       2.235       1.120      3.7206E-03
   9    9.997       8.892       7.787       6.681       5.572       4.462       3.350       2.235       1.120      3.7206E-03
  10    9.997       8.892       7.787       6.681       5.572       4.462       3.350       2.235       1.120      3.7206E-03
1
              HEAD IN LAYER   3 AT END OF TIME STEP  52 IN STRESS PERIOD    2
  ---------------------------------------------------------------------------

            1           2           3           4           5           6           7           8           9          10
 ........................................................................................................................
   1    9.997       8.892       7.787       6.681       5.572       4.462       3.350       2.235       1.120      3.7206E-03
   2    9.997       8.892       7.787       6.681       5.572       4.462       3.350       2.235       1.120      3.7206E-03
   3    9.997       8.892       7.787       6.681       5.572       4.462       3.350       2.235       1.120      3.7206E-03
   4    9.997       8.892       7.787       6.681       5.572       4.462       3.350       2.235       1.120      3.7206E-03
   5    9.997       8.892       7.787       6.681       5.572       4.462       3.350       2.235       1.120      3.7206E-03
   6    9.997       8.892       7.787       6.681       5.572       4.462       3.350       2.235       1.120      3.7206E-03
   7    9.997       8.892       7.787       6.681       5.572       4.462       3.350       2.235       1.120      3.7206E-03
   8    9.997       8.892       7.787       6.681       5.572       4.462       3.350       2.235       1.120      3.7206E-03
   9    9.997       8.892       7.787       6.681       5.572       4.462       3.350       2.235       1.120      3.7206E-03
  10    9.997       8.892       7.787       6.681       5.572       4.462       3.350       2.235       1.120      3.7206E-03

 HEAD WILL BE SAVED ON UNIT   51 AT END OF TIME STEP   52, STRESS PERIOD    2

 DRAWDOWN WILL BE SAVED ON UNIT   52 AT END OF TIME STEP   52, STRESS PERIOD    2
1
  VOLUMETRIC BUDGET FOR ENTIRE MODEL AT END OF TIME STEP   52, STRESS PERIOD   2
  ------------------------------------------------------------------------------

     CUMULATIVE VOLUMES      L**3       RATES FOR THIS TIME STEP      L**3/T
     ------------------                 ------------------------

           IN:                                      IN:
           ---                                      ---
             STORAGE =       24950.0898               STORAGE =           5.8190
       CONSTANT HEAD =           0.0000         CONSTANT HEAD =           0.0000
               WELLS =           0.0000                 WELLS =           0.0000
       RIVER LEAKAGE =       21476.1016         RIVER LEAKAGE =         552.1721

            TOTAL IN =       46426.1914              TOTAL IN =         557.9911

          OUT:                                     OUT:
          ----                                     ----
             STORAGE =       2.9138E-04               STORAGE =           0.0000
       CONSTANT HEAD =           0.0000         CONSTANT HEAD =           0.0000
               WELLS =           0.0000                 WELLS =           0.0000
       RIVER LEAKAGE =       46429.2578         RIVER LEAKAGE =         558.0880

           TOTAL OUT =       46429.2578             TOTAL OUT =         558.0880

            IN - OUT =          -3.0664              IN - OUT =      -9.6863E-02

 PERCENT DISCREPANCY =          -0.01     PERCENT DISCREPANCY =          -0.02






         TIME SUMMARY AT END OF TIME STEP   52 IN STRESS PERIOD    2
                    SECONDS     MINUTES      HOURS       DAYS        YEARS
                    -----------------------------------------------------------
   TIME STEP LENGTH  86400.      1440.0      24.000      1.0000     2.73785E-03
 STRESS PERIOD TIME 4.49280E+06  74880.      1248.0      52.000     0.14237    
         TOTAL TIME 4.57920E+06  76320.      1272.0      53.000     0.14511    
1

 SOLVING FOR HEAD 

 OUTPUT CONTROL FOR STRESS PERIOD    2   TIME STEP   53
    SAVE HEAD FOR ALL LAYERS
    SAVE DRAWDOWN FOR ALL LAYERS
    SAVE BUDGET
    PRINT HEAD FOR ALL LAYERS
    PRINT BUDGET
 UBDSV1 SAVING "         STORAGE" ON UNIT  53 AT TIME STEP 53, STRESS PERIOD   2
 UBDSV2 SAVING "   CONSTANT HEAD" ON UNIT  53 AT TIME STEP 53, STRESS PERIOD   2
 UBDSV1 SAVING "FLOW RIGHT FACE " ON UNIT  53 AT TIME STEP 53, STRESS PERIOD   2
 UBDSV1 SAVING "FLOW FRONT FACE " ON UNIT  53 AT TIME STEP 53, STRESS PERIOD   2
 UBDSV1 SAVING "FLOW LOWER FACE " ON UNIT  53 AT TIME STEP 53, STRESS PERIOD   2
1
              HEAD IN LAYER   1 AT END OF TIME STEP  53 IN STRESS PERIOD    2
  ---------------------------------------------------------------------------

            1           2           3           4           5           6           7           8           9          10
 ........................................................................................................................
   1    9.997       8.892       7.786       6.679       5.570       4.460       3.348       2.234       1.119      3.7185E-03
   2    9.997       8.892       7.786       6.679       5.570       4.460       3.348       2.234       1.119      3.7185E-03
   3    9.997       8.892       7.786       6.679       5.570       4.460       3.348       2.234       1.119      3.7185E-03
   4    9.997       8.892       7.786       6.679       5.570       4.460       3.348       2.234       1.119      3.7185E-03
   5    9.997       8.892       7.786       6.679       5.570       4.460       3.348       2.234       1.119      3.7185E-03
   6    9.997       8.892       7.786       6.679       5.570       4.460       3.348       2.234       1.119      3.7185E-03
   7    9.997       8.892       7.786       6.679       5.570       4.460       3.348       2.234       1.119      3.7185E-03
   8    9.997       8.892       7.786       6.679       5.570       4.460       3.348       2.234       1.119      3.7185E-03
   9    9.997       8.892       7.786       6.679       5.570       4.460       3.348       2.234       1.119      3.7185E-03
  10    9.997       8.892       7.786       6.679       5.570       4.460       3.348       2.234       1.119      3.7185E-03
1
              HEAD IN LAYER   2 AT END OF TIME STEP  53 IN STRESS PERIOD    2
  ---------------------------------------------------------------------------

            1           2           3           4           5           6           7           8           9          10
 ........................................................................................................................
   1    9.997       8.892       7.786       6.679       5.570       4.460       3.348       2.234       1.119      3.7185E-03
   2    9.997       8.892       7.786       6.679       5.570       4.460       3.348       2.234       1.119      3.7185E-03
   3    9.997       8.892       7.786       6.679       5.570       4.460       3.348       2.234       1.119      3.7185E-03
   4    9.997       8.892       7.786       6.679       5.570       4.460       3.348       2.234       1.119      3.7185E-03
   5    9.997       8.892       7.786       6.679       5.570       4.460       3.348       2.234       1.119      3.7185E-03
   6    9.997       8.892       7.786       6.679       5.570       4.460       3.348       2.234       1.119      3.7185E-03
   7    9.997       8.892       7.786       6.679       5.570       4.460       3.348       2.234       1.119      3.7185E-03
   8    9.997       8.892       7.786       6.679       5.570       4.460       3.348       2.234       1.119      3.7185E-03
   9    9.997       8.892       7.786       6.679       5.570       4.460       3.348       2.234       1.119      3.7185E-03
  10    9.997       8.892       7.786       6.679       5.570       4.460       3.348       2.234       1.119      3.7185E-03
1
              HEAD IN LAYER   3 AT END OF TIME STEP  53 IN STRESS PERIOD    2
  ---------------------------------------------------------------------------

            1           2           3           4           5           6           7           8           9          10
 ........................................................................................................................
   1    9.997       8.892       7.786       6.679       5.570       4.460       3.348       2.234       1.119      3.7185E-03
   2    9.997       8.892       7.786       6.679       5.570       4.460       3.348       2.234       1.119      3.7185E-03
   3    9.997       8.892       7.786       6.679       5.570       4.460       3.348       2.234       1.119      3.7185E-03
   4    9.997       8.892       7.786       6.679       5.570       4.460       3.348       2.234       1.119      3.7185E-03
   5    9.997       8.892       7.786       6.679       5.570       4.460       3.348       2.234       1.119      3.7185E-03
   6    9.997       8.892       7.786       6.679       5.570       4.460       3.348       2.234       1.119      3.7185E-03
   7    9.997       8.892       7.786       6.679       5.570       4.460       3.348       2.234       1.119      3.7185E-03
   8    9.997       8.892       7.786       6.679       5.570       4.460       3.348       2.234       1.119      3.7185E-03
   9    9.997       8.892       7.786       6.679       5.570       4.460       3.348       2.234       1.119      3.7185E-03
  10    9.997       8.892       7.786       6.679       5.570       4.460       3.348       2.234       1.119      3.7185E-03

 HEAD WILL BE SAVED ON UNIT   51 AT END OF TIME STEP   53, STRESS PERIOD    2

 DRAWDOWN WILL BE SAVED ON UNIT   52 AT END OF TIME STEP   53, STRESS PERIOD    2
1
  VOLUMETRIC BUDGET FOR ENTIRE MODEL AT END OF TIME STEP   53, STRESS PERIOD   2
  ------------------------------------------------------------------------------

     CUMULATIVE VOLUMES      L**3       RATES FOR THIS TIME STEP      L**3/T
     ------------------                 ------------------------

           IN:                                      IN:
           ---                                      ---
             STORAGE =       24955.2832               STORAGE =           5.1926
       CONSTANT HEAD =           0.0000         CONSTANT HEAD =           0.0000
               WELLS =           0.0000                 WELLS =           0.0000
       RIVER LEAKAGE =       22028.5859         RIVER LEAKAGE =         552.4841

            TOTAL IN =       46983.8672              TOTAL IN =         557.6766

          OUT:                                     OUT:
          ----                                     ----
             STORAGE =       5.3355E-04               STORAGE =       2.4217E-04
       CONSTANT HEAD =           0.0000         CONSTANT HEAD =           0.0000
               WELLS =           0.0000                 WELLS =           0.0000
       RIVER LEAKAGE =       46987.0312         RIVER LEAKAGE =         557.7751

           TOTAL OUT =       46987.0312             TOTAL OUT =         557.7753

            IN - OUT =          -3.1641              IN - OUT =      -9.8694E-02

 PERCENT DISCREPANCY =          -0.01     PERCENT DISCREPANCY =          -0.02






         TIME SUMMARY AT END OF TIME STEP   53 IN STRESS PERIOD    2
                    SECONDS     MINUTES      HOURS       DAYS        YEARS
                    -----------------------------------------------------------
   TIME STEP LENGTH  86400.      1440.0      24.000      1.0000     2.73785E-03
 STRESS PERIOD TIME 4.57920E+06  76320.      1272.0      53.000     0.14511    
         TOTAL TIME 4.66560E+06  77760.      1296.0      54.000     0.14784    
1

 SOLVING FOR HEAD 

 OUTPUT CONTROL FOR STRESS PERIOD    2   TIME STEP   54
    SAVE HEAD FOR ALL LAYERS
    SAVE DRAWDOWN FOR ALL LAYERS
    SAVE BUDGET
    PRINT HEAD FOR ALL LAYERS
    PRINT BUDGET
 UBDSV1 SAVING "         STORAGE" ON UNIT  53 AT TIME STEP 54, STRESS PERIOD   2
 UBDSV2 SAVING "   CONSTANT HEAD" ON UNIT  53 AT TIME STEP 54, STRESS PERIOD   2
 UBDSV1 SAVING "FLOW RIGHT FACE " ON UNIT  53 AT TIME STEP 54, STRESS PERIOD   2
 UBDSV1 SAVING "FLOW FRONT FACE " ON UNIT  53 AT TIME STEP 54, STRESS PERIOD   2
 UBDSV1 SAVING "FLOW LOWER FACE " ON UNIT  53 AT TIME STEP 54, STRESS PERIOD   2
1
              HEAD IN LAYER   1 AT END OF TIME STEP  54 IN STRESS PERIOD    2
  ---------------------------------------------------------------------------

            1           2           3           4           5           6           7           8           9          10
 ........................................................................................................................
   1    9.997       8.891       7.785       6.678       5.569       4.458       3.347       2.233       1.119      3.7166E-03
   2    9.997       8.891       7.785       6.678       5.569       4.458       3.347       2.233       1.119      3.7166E-03
   3    9.997       8.891       7.785       6.678       5.569       4.458       3.347       2.233       1.119      3.7166E-03
   4    9.997       8.891       7.785       6.678       5.569       4.458       3.347       2.233       1.119      3.7166E-03
   5    9.997       8.891       7.785       6.678       5.569       4.458       3.347       2.233       1.119      3.7166E-03
   6    9.997       8.891       7.785       6.678       5.569       4.458       3.347       2.233       1.119      3.7166E-03
   7    9.997       8.891       7.785       6.678       5.569       4.458       3.347       2.233       1.119      3.7166E-03
   8    9.997       8.891       7.785       6.678       5.569       4.458       3.347       2.233       1.119      3.7166E-03
   9    9.997       8.891       7.785       6.678       5.569       4.458       3.347       2.233       1.119      3.7166E-03
  10    9.997       8.891       7.785       6.678       5.569       4.458       3.347       2.233       1.119      3.7166E-03
1
              HEAD IN LAYER   2 AT END OF TIME STEP  54 IN STRESS PERIOD    2
  ---------------------------------------------------------------------------

            1           2           3           4           5           6           7           8           9          10
 ........................................................................................................................
   1    9.997       8.891       7.785       6.678       5.569       4.458       3.347       2.233       1.119      3.7166E-03
   2    9.997       8.891       7.785       6.678       5.569       4.458       3.347       2.233       1.119      3.7166E-03
   3    9.997       8.891       7.785       6.678       5.569       4.458       3.347       2.233       1.119      3.7166E-03
   4    9.997       8.891       7.785       6.678       5.569       4.458       3.347       2.233       1.119      3.7166E-03
   5    9.997       8.891       7.785       6.678       5.569       4.458       3.347       2.233       1.119      3.7166E-03
   6    9.997       8.891       7.785       6.678       5.569       4.458       3.347       2.233       1.119      3.7166E-03
   7    9.997       8.891       7.785       6.678       5.569       4.458       3.347       2.233       1.119      3.7166E-03
   8    9.997       8.891       7.785       6.678       5.569       4.458       3.347       2.233       1.119      3.7166E-03
   9    9.997       8.891       7.785       6.678       5.569       4.458       3.347       2.233       1.119      3.7166E-03
  10    9.997       8.891       7.785       6.678       5.569       4.458       3.347       2.233       1.119      3.7166E-03
1
              HEAD IN LAYER   3 AT END OF TIME STEP  54 IN STRESS PERIOD    2
  ---------------------------------------------------------------------------

            1           2           3           4           5           6           7           8           9          10
 ........................................................................................................................
   1    9.997       8.891       7.785       6.678       5.569       4.458       3.347       2.233       1.119      3.7166E-03
   2    9.997       8.891       7.785       6.678       5.569       4.458       3.347       2.233       1.119      3.7166E-03
   3    9.997       8.891       7.785       6.678       5.569       4.458       3.347       2.233       1.119      3.7166E-03
   4    9.997       8.891       7.785       6.678       5.569       4.458       3.347       2.233       1.119      3.7166E-03
   5    9.997       8.891       7.785       6.678       5.569       4.458       3.347       2.233       1.119      3.7166E-03
   6    9.997       8.891       7.785       6.678       5.569       4.458       3.347       2.233       1.119      3.7166E-03
   7    9.997       8.891       7.785       6.678       5.569       4.458       3.347       2.233       1.119      3.7166E-03
   8    9.997       8.891       7.785       6.678       5.569       4.458       3.347       2.233       1.119      3.7166E-03
   9    9.997       8.891       7.785       6.678       5.569       4.458       3.347       2.233       1.119      3.7166E-03
  10    9.997       8.891       7.785       6.678       5.569       4.458       3.347       2.233       1.119      3.7166E-03

 HEAD WILL BE SAVED ON UNIT   51 AT END OF TIME STEP   54, STRESS PERIOD    2

 DRAWDOWN WILL BE SAVED ON UNIT   52 AT END OF TIME STEP   54, STRESS PERIOD    2
1
  VOLUMETRIC BUDGET FOR ENTIRE MODEL AT END OF TIME STEP   54, STRESS PERIOD   2
  ------------------------------------------------------------------------------

     CUMULATIVE VOLUMES      L**3       RATES FOR THIS TIME STEP      L**3/T
     ------------------                 ------------------------

           IN:                                      IN:
           ---                                      ---
             STORAGE =       24959.9180               STORAGE =           4.6353
       CONSTANT HEAD =           0.0000         CONSTANT HEAD =           0.0000
               WELLS =           0.0000                 WELLS =           0.0000
       RIVER LEAKAGE =       22581.3477         RIVER LEAKAGE =         552.7622

            TOTAL IN =       47541.2656              TOTAL IN =         557.3975

          OUT:                                     OUT:
          ----                                     ----
             STORAGE =       5.3355E-04               STORAGE =           0.0000
       CONSTANT HEAD =           0.0000         CONSTANT HEAD =           0.0000
               WELLS =           0.0000                 WELLS =           0.0000
       RIVER LEAKAGE =       47544.5273         RIVER LEAKAGE =         557.4961

           TOTAL OUT =       47544.5273             TOTAL OUT =         557.4961

            IN - OUT =          -3.2617              IN - OUT =      -9.8633E-02

 PERCENT DISCREPANCY =          -0.01     PERCENT DISCREPANCY =          -0.02






         TIME SUMMARY AT END OF TIME STEP   54 IN STRESS PERIOD    2
                    SECONDS     MINUTES      HOURS       DAYS        YEARS
                    -----------------------------------------------------------
   TIME STEP LENGTH  86400.      1440.0      24.000      1.0000     2.73785E-03
 STRESS PERIOD TIME 4.66560E+06  77760.      1296.0      54.000     0.14784    
         TOTAL TIME 4.75200E+06  79200.      1320.0      55.000     0.15058    
1

 SOLVING FOR HEAD 

 OUTPUT CONTROL FOR STRESS PERIOD    2   TIME STEP   55
    SAVE HEAD FOR ALL LAYERS
    SAVE DRAWDOWN FOR ALL LAYERS
    SAVE BUDGET
    PRINT HEAD FOR ALL LAYERS
    PRINT BUDGET
 UBDSV1 SAVING "         STORAGE" ON UNIT  53 AT TIME STEP 55, STRESS PERIOD   2
 UBDSV2 SAVING "   CONSTANT HEAD" ON UNIT  53 AT TIME STEP 55, STRESS PERIOD   2
 UBDSV1 SAVING "FLOW RIGHT FACE " ON UNIT  53 AT TIME STEP 55, STRESS PERIOD   2
 UBDSV1 SAVING "FLOW FRONT FACE " ON UNIT  53 AT TIME STEP 55, STRESS PERIOD   2
 UBDSV1 SAVING "FLOW LOWER FACE " ON UNIT  53 AT TIME STEP 55, STRESS PERIOD   2
1
              HEAD IN LAYER   1 AT END OF TIME STEP  55 IN STRESS PERIOD    2
  ---------------------------------------------------------------------------

            1           2           3           4           5           6           7           8           9          10
 ........................................................................................................................
   1    9.997       8.891       7.784       6.676       5.567       4.457       3.345       2.232       1.118      3.7150E-03
   2    9.997       8.891       7.784       6.676       5.567       4.457       3.345       2.232       1.118      3.7150E-03
   3    9.997       8.891       7.784       6.676       5.567       4.457       3.345       2.232       1.118      3.7150E-03
   4    9.997       8.891       7.784       6.676       5.567       4.457       3.345       2.232       1.118      3.7150E-03
   5    9.997       8.891       7.784       6.676       5.567       4.457       3.345       2.232       1.118      3.7150E-03
   6    9.997       8.891       7.784       6.676       5.567       4.457       3.345       2.232       1.118      3.7150E-03
   7    9.997       8.891       7.784       6.676       5.567       4.457       3.345       2.232       1.118      3.7150E-03
   8    9.997       8.891       7.784       6.676       5.567       4.457       3.345       2.232       1.118      3.7150E-03
   9    9.997       8.891       7.784       6.676       5.567       4.457       3.345       2.232       1.118      3.7150E-03
  10    9.997       8.891       7.784       6.676       5.567       4.457       3.345       2.232       1.118      3.7150E-03
1
              HEAD IN LAYER   2 AT END OF TIME STEP  55 IN STRESS PERIOD    2
  ---------------------------------------------------------------------------

            1           2           3           4           5           6           7           8           9          10
 ........................................................................................................................
   1    9.997       8.891       7.784       6.676       5.567       4.457       3.345       2.232       1.118      3.7150E-03
   2    9.997       8.891       7.784       6.676       5.567       4.457       3.345       2.232       1.118      3.7150E-03
   3    9.997       8.891       7.784       6.676       5.567       4.457       3.345       2.232       1.118      3.7150E-03
   4    9.997       8.891       7.784       6.676       5.567       4.457       3.345       2.232       1.118      3.7150E-03
   5    9.997       8.891       7.784       6.676       5.567       4.457       3.345       2.232       1.118      3.7150E-03
   6    9.997       8.891       7.784       6.676       5.567       4.457       3.345       2.232       1.118      3.7150E-03
   7    9.997       8.891       7.784       6.676       5.567       4.457       3.345       2.232       1.118      3.7150E-03
   8    9.997       8.891       7.784       6.676       5.567       4.457       3.345       2.232       1.118      3.7150E-03
   9    9.997       8.891       7.784       6.676       5.567       4.457       3.345       2.232       1.118      3.7150E-03
  10    9.997       8.891       7.784       6.676       5.567       4.457       3.345       2.232       1.118      3.7150E-03
1
              HEAD IN LAYER   3 AT END OF TIME STEP  55 IN STRESS PERIOD    2
  ---------------------------------------------------------------------------

            1           2           3           4           5           6           7           8           9          10
 ........................................................................................................................
   1    9.997       8.891       7.784       6.676       5.567       4.457       3.345       2.232       1.118      3.7150E-03
   2    9.997       8.891       7.784       6.676       5.567       4.457       3.345       2.232       1.118      3.7150E-03
   3    9.997       8.891       7.784       6.676       5.567       4.457       3.345       2.232       1.118      3.7150E-03
   4    9.997       8.891       7.784       6.676       5.567       4.457       3.345       2.232       1.118      3.7150E-03
   5    9.997       8.891       7.784       6.676       5.567       4.457       3.345       2.232       1.118      3.7150E-03
   6    9.997       8.891       7.784       6.676       5.567       4.457       3.345       2.232       1.118      3.7150E-03
   7    9.997       8.891       7.784       6.676       5.567       4.457       3.345       2.232       1.118      3.7150E-03
   8    9.997       8.891       7.784       6.676       5.567       4.457       3.345       2.232       1.118      3.7150E-03
   9    9.997       8.891       7.784       6.676       5.567       4.457       3.345       2.232       1.118      3.7150E-03
  10    9.997       8.891       7.784       6.676       5.567       4.457       3.345       2.232       1.118      3.7150E-03

 HEAD WILL BE SAVED ON UNIT   51 AT END OF TIME STEP   55, STRESS PERIOD    2

 DRAWDOWN WILL BE SAVED ON UNIT   52 AT END OF TIME STEP   55, STRESS PERIOD    2
1
  VOLUMETRIC BUDGET FOR ENTIRE MODEL AT END OF TIME STEP   55, STRESS PERIOD   2
  ------------------------------------------------------------------------------

     CUMULATIVE VOLUMES      L**3       RATES FOR THIS TIME STEP      L**3/T
     ------------------                 ------------------------

           IN:                                      IN:
           ---                                      ---
             STORAGE =       24964.0547               STORAGE =           4.1365
       CONSTANT HEAD =           0.0000         CONSTANT HEAD =           0.0000
               WELLS =           0.0000                 WELLS =           0.0000
       RIVER LEAKAGE =       23134.3594         RIVER LEAKAGE =         553.0107

            TOTAL IN =       48098.4141              TOTAL IN =         557.1472

          OUT:                                     OUT:
          ----                                     ----
             STORAGE =       7.9902E-04               STORAGE =       2.6546E-04
       CONSTANT HEAD =           0.0000         CONSTANT HEAD =           0.0000
               WELLS =           0.0000                 WELLS =           0.0000
       RIVER LEAKAGE =       48101.7734         RIVER LEAKAGE =         557.2466

           TOTAL OUT =       48101.7734             TOTAL OUT =         557.2469

            IN - OUT =          -3.3594              IN - OUT =      -9.9670E-02

 PERCENT DISCREPANCY =          -0.01     PERCENT DISCREPANCY =          -0.02






         TIME SUMMARY AT END OF TIME STEP   55 IN STRESS PERIOD    2
                    SECONDS     MINUTES      HOURS       DAYS        YEARS
                    -----------------------------------------------------------
   TIME STEP LENGTH  86400.      1440.0      24.000      1.0000     2.73785E-03
 STRESS PERIOD TIME 4.75200E+06  79200.      1320.0      55.000     0.15058    
         TOTAL TIME 4.83840E+06  80640.      1344.0      56.000     0.15332    
1

 SOLVING FOR HEAD 

 OUTPUT CONTROL FOR STRESS PERIOD    2   TIME STEP   56
    SAVE HEAD FOR ALL LAYERS
    SAVE DRAWDOWN FOR ALL LAYERS
    SAVE BUDGET
    PRINT HEAD FOR ALL LAYERS
    PRINT BUDGET
 UBDSV1 SAVING "         STORAGE" ON UNIT  53 AT TIME STEP 56, STRESS PERIOD   2
 UBDSV2 SAVING "   CONSTANT HEAD" ON UNIT  53 AT TIME STEP 56, STRESS PERIOD   2
 UBDSV1 SAVING "FLOW RIGHT FACE " ON UNIT  53 AT TIME STEP 56, STRESS PERIOD   2
 UBDSV1 SAVING "FLOW FRONT FACE " ON UNIT  53 AT TIME STEP 56, STRESS PERIOD   2
 UBDSV1 SAVING "FLOW LOWER FACE " ON UNIT  53 AT TIME STEP 56, STRESS PERIOD   2
1
              HEAD IN LAYER   1 AT END OF TIME STEP  56 IN STRESS PERIOD    2
  ---------------------------------------------------------------------------

            1           2           3           4           5           6           7           8           9          10
 ........................................................................................................................
   1    9.997       8.890       7.783       6.675       5.566       4.456       3.344       2.231       1.118      3.7135E-03
   2    9.997       8.890       7.783       6.675       5.566       4.456       3.344       2.231       1.118      3.7135E-03
   3    9.997       8.890       7.783       6.675       5.566       4.456       3.344       2.231       1.118      3.7135E-03
   4    9.997       8.890       7.783       6.675       5.566       4.456       3.344       2.231       1.118      3.7135E-03
   5    9.997       8.890       7.783       6.675       5.566       4.456       3.344       2.231       1.118      3.7135E-03
   6    9.997       8.890       7.783       6.675       5.566       4.456       3.344       2.231       1.118      3.7135E-03
   7    9.997       8.890       7.783       6.675       5.566       4.456       3.344       2.231       1.118      3.7135E-03
   8    9.997       8.890       7.783       6.675       5.566       4.456       3.344       2.231       1.118      3.7135E-03
   9    9.997       8.890       7.783       6.675       5.566       4.456       3.344       2.231       1.118      3.7135E-03
  10    9.997       8.890       7.783       6.675       5.566       4.456       3.344       2.231       1.118      3.7135E-03
1
              HEAD IN LAYER   2 AT END OF TIME STEP  56 IN STRESS PERIOD    2
  ---------------------------------------------------------------------------

            1           2           3           4           5           6           7           8           9          10
 ........................................................................................................................
   1    9.997       8.890       7.783       6.675       5.566       4.456       3.344       2.231       1.118      3.7135E-03
   2    9.997       8.890       7.783       6.675       5.566       4.456       3.344       2.231       1.118      3.7135E-03
   3    9.997       8.890       7.783       6.675       5.566       4.456       3.344       2.231       1.118      3.7135E-03
   4    9.997       8.890       7.783       6.675       5.566       4.456       3.344       2.231       1.118      3.7135E-03
   5    9.997       8.890       7.783       6.675       5.566       4.456       3.344       2.231       1.118      3.7135E-03
   6    9.997       8.890       7.783       6.675       5.566       4.456       3.344       2.231       1.118      3.7135E-03
   7    9.997       8.890       7.783       6.675       5.566       4.456       3.344       2.231       1.118      3.7135E-03
   8    9.997       8.890       7.783       6.675       5.566       4.456       3.344       2.231       1.118      3.7135E-03
   9    9.997       8.890       7.783       6.675       5.566       4.456       3.344       2.231       1.118      3.7135E-03
  10    9.997       8.890       7.783       6.675       5.566       4.456       3.344       2.231       1.118      3.7135E-03
1
              HEAD IN LAYER   3 AT END OF TIME STEP  56 IN STRESS PERIOD    2
  ---------------------------------------------------------------------------

            1           2           3           4           5           6           7           8           9          10
 ........................................................................................................................
   1    9.997       8.890       7.783       6.675       5.566       4.456       3.344       2.231       1.118      3.7135E-03
   2    9.997       8.890       7.783       6.675       5.566       4.456       3.344       2.231       1.118      3.7135E-03
   3    9.997       8.890       7.783       6.675       5.566       4.456       3.344       2.231       1.118      3.7135E-03
   4    9.997       8.890       7.783       6.675       5.566       4.456       3.344       2.231       1.118      3.7135E-03
   5    9.997       8.890       7.783       6.675       5.566       4.456       3.344       2.231       1.118      3.7135E-03
   6    9.997       8.890       7.783       6.675       5.566       4.456       3.344       2.231       1.118      3.7135E-03
   7    9.997       8.890       7.783       6.675       5.566       4.456       3.344       2.231       1.118      3.7135E-03
   8    9.997       8.890       7.783       6.675       5.566       4.456       3.344       2.231       1.118      3.7135E-03
   9    9.997       8.890       7.783       6.675       5.566       4.456       3.344       2.231       1.118      3.7135E-03
  10    9.997       8.890       7.783       6.675       5.566       4.456       3.344       2.231       1.118      3.7135E-03

 HEAD WILL BE SAVED ON UNIT   51 AT END OF TIME STEP   56, STRESS PERIOD    2

 DRAWDOWN WILL BE SAVED ON UNIT   52 AT END OF TIME STEP   56, STRESS PERIOD    2
1
  VOLUMETRIC BUDGET FOR ENTIRE MODEL AT END OF TIME STEP   56, STRESS PERIOD   2
  ------------------------------------------------------------------------------

     CUMULATIVE VOLUMES      L**3       RATES FOR THIS TIME STEP      L**3/T
     ------------------                 ------------------------

           IN:                                      IN:
           ---                                      ---
             STORAGE =       24967.7461               STORAGE =           3.6911
       CONSTANT HEAD =           0.0000         CONSTANT HEAD =           0.0000
               WELLS =           0.0000                 WELLS =           0.0000
       RIVER LEAKAGE =       23687.5918         RIVER LEAKAGE =         553.2324

            TOTAL IN =       48655.3359              TOTAL IN =         556.9235

          OUT:                                     OUT:
          ----                                     ----
             STORAGE =       9.7064E-04               STORAGE =       1.7162E-04
       CONSTANT HEAD =           0.0000         CONSTANT HEAD =           0.0000
               WELLS =           0.0000                 WELLS =           0.0000
       RIVER LEAKAGE =       48658.7969         RIVER LEAKAGE =         557.0244

           TOTAL OUT =       48658.7969             TOTAL OUT =         557.0246

            IN - OUT =          -3.4609              IN - OUT =          -0.1011

 PERCENT DISCREPANCY =          -0.01     PERCENT DISCREPANCY =          -0.02






         TIME SUMMARY AT END OF TIME STEP   56 IN STRESS PERIOD    2
                    SECONDS     MINUTES      HOURS       DAYS        YEARS
                    -----------------------------------------------------------
   TIME STEP LENGTH  86400.      1440.0      24.000      1.0000     2.73785E-03
 STRESS PERIOD TIME 4.83840E+06  80640.      1344.0      56.000     0.15332    
         TOTAL TIME 4.92480E+06  82080.      1368.0      57.000     0.15606    
1

 SOLVING FOR HEAD 

 OUTPUT CONTROL FOR STRESS PERIOD    2   TIME STEP   57
    SAVE HEAD FOR ALL LAYERS
    SAVE DRAWDOWN FOR ALL LAYERS
    SAVE BUDGET
    PRINT HEAD FOR ALL LAYERS
    PRINT BUDGET
 UBDSV1 SAVING "         STORAGE" ON UNIT  53 AT TIME STEP 57, STRESS PERIOD   2
 UBDSV2 SAVING "   CONSTANT HEAD" ON UNIT  53 AT TIME STEP 57, STRESS PERIOD   2
 UBDSV1 SAVING "FLOW RIGHT FACE " ON UNIT  53 AT TIME STEP 57, STRESS PERIOD   2
 UBDSV1 SAVING "FLOW FRONT FACE " ON UNIT  53 AT TIME STEP 57, STRESS PERIOD   2
 UBDSV1 SAVING "FLOW LOWER FACE " ON UNIT  53 AT TIME STEP 57, STRESS PERIOD   2
1
              HEAD IN LAYER   1 AT END OF TIME STEP  57 IN STRESS PERIOD    2
  ---------------------------------------------------------------------------

            1           2           3           4           5           6           7           8           9          10
 ........................................................................................................................
   1    9.997       8.890       7.782       6.674       5.565       4.455       3.343       2.231       1.117      3.7122E-03
   2    9.997       8.890       7.782       6.674       5.565       4.455       3.343       2.231       1.117      3.7122E-03
   3    9.997       8.890       7.782       6.674       5.565       4.455       3.343       2.231       1.117      3.7122E-03
   4    9.997       8.890       7.782       6.674       5.565       4.455       3.343       2.231       1.117      3.7122E-03
   5    9.997       8.890       7.782       6.674       5.565       4.455       3.343       2.231       1.117      3.7122E-03
   6    9.997       8.890       7.782       6.674       5.565       4.455       3.343       2.231       1.117      3.7122E-03
   7    9.997       8.890       7.782       6.674       5.565       4.455       3.343       2.231       1.117      3.7122E-03
   8    9.997       8.890       7.782       6.674       5.565       4.455       3.343       2.231       1.117      3.7122E-03
   9    9.997       8.890       7.782       6.674       5.565       4.455       3.343       2.231       1.117      3.7122E-03
  10    9.997       8.890       7.782       6.674       5.565       4.455       3.343       2.231       1.117      3.7122E-03
1
              HEAD IN LAYER   2 AT END OF TIME STEP  57 IN STRESS PERIOD    2
  ---------------------------------------------------------------------------

            1           2           3           4           5           6           7           8           9          10
 ........................................................................................................................
   1    9.997       8.890       7.782       6.674       5.565       4.455       3.343       2.231       1.117      3.7122E-03
   2    9.997       8.890       7.782       6.674       5.565       4.455       3.343       2.231       1.117      3.7122E-03
   3    9.997       8.890       7.782       6.674       5.565       4.455       3.343       2.231       1.117      3.7122E-03
   4    9.997       8.890       7.782       6.674       5.565       4.455       3.343       2.231       1.117      3.7122E-03
   5    9.997       8.890       7.782       6.674       5.565       4.455       3.343       2.231       1.117      3.7122E-03
   6    9.997       8.890       7.782       6.674       5.565       4.455       3.343       2.231       1.117      3.7122E-03
   7    9.997       8.890       7.782       6.674       5.565       4.455       3.343       2.231       1.117      3.7122E-03
   8    9.997       8.890       7.782       6.674       5.565       4.455       3.343       2.231       1.117      3.7122E-03
   9    9.997       8.890       7.782       6.674       5.565       4.455       3.343       2.231       1.117      3.7122E-03
  10    9.997       8.890       7.782       6.674       5.565       4.455       3.343       2.231       1.117      3.7122E-03
1
              HEAD IN LAYER   3 AT END OF TIME STEP  57 IN STRESS PERIOD    2
  ---------------------------------------------------------------------------

            1           2           3           4           5           6           7           8           9          10
 ........................................................................................................................
   1    9.997       8.890       7.782       6.674       5.565       4.455       3.343       2.231       1.117      3.7122E-03
   2    9.997       8.890       7.782       6.674       5.565       4.455       3.343       2.231       1.117      3.7122E-03
   3    9.997       8.890       7.782       6.674       5.565       4.455       3.343       2.231       1.117      3.7122E-03
   4    9.997       8.890       7.782       6.674       5.565       4.455       3.343       2.231       1.117      3.7122E-03
   5    9.997       8.890       7.782       6.674       5.565       4.455       3.343       2.231       1.117      3.7122E-03
   6    9.997       8.890       7.782       6.674       5.565       4.455       3.343       2.231       1.117      3.7122E-03
   7    9.997       8.890       7.782       6.674       5.565       4.455       3.343       2.231       1.117      3.7122E-03
   8    9.997       8.890       7.782       6.674       5.565       4.455       3.343       2.231       1.117      3.7122E-03
   9    9.997       8.890       7.782       6.674       5.565       4.455       3.343       2.231       1.117      3.7122E-03
  10    9.997       8.890       7.782       6.674       5.565       4.455       3.343       2.231       1.117      3.7122E-03

 HEAD WILL BE SAVED ON UNIT   51 AT END OF TIME STEP   57, STRESS PERIOD    2

 DRAWDOWN WILL BE SAVED ON UNIT   52 AT END OF TIME STEP   57, STRESS PERIOD    2
1
  VOLUMETRIC BUDGET FOR ENTIRE MODEL AT END OF TIME STEP   57, STRESS PERIOD   2
  ------------------------------------------------------------------------------

     CUMULATIVE VOLUMES      L**3       RATES FOR THIS TIME STEP      L**3/T
     ------------------                 ------------------------

           IN:                                      IN:
           ---                                      ---
             STORAGE =       24971.0410               STORAGE =           3.2947
       CONSTANT HEAD =           0.0000         CONSTANT HEAD =           0.0000
               WELLS =           0.0000                 WELLS =           0.0000
       RIVER LEAKAGE =       24241.0215         RIVER LEAKAGE =         553.4301

            TOTAL IN =       49212.0625              TOTAL IN =         556.7247

          OUT:                                     OUT:
          ----                                     ----
             STORAGE =       1.3786E-03               STORAGE =       4.0792E-04
       CONSTANT HEAD =           0.0000         CONSTANT HEAD =           0.0000
               WELLS =           0.0000                 WELLS =           0.0000
       RIVER LEAKAGE =       49215.6211         RIVER LEAKAGE =         556.8256

           TOTAL OUT =       49215.6211             TOTAL OUT =         556.8260

            IN - OUT =          -3.5586              IN - OUT =          -0.1013

 PERCENT DISCREPANCY =          -0.01     PERCENT DISCREPANCY =          -0.02






         TIME SUMMARY AT END OF TIME STEP   57 IN STRESS PERIOD    2
                    SECONDS     MINUTES      HOURS       DAYS        YEARS
                    -----------------------------------------------------------
   TIME STEP LENGTH  86400.      1440.0      24.000      1.0000     2.73785E-03
 STRESS PERIOD TIME 4.92480E+06  82080.      1368.0      57.000     0.15606    
         TOTAL TIME 5.01120E+06  83520.      1392.0      58.000     0.15880    
1

 SOLVING FOR HEAD 

 OUTPUT CONTROL FOR STRESS PERIOD    2   TIME STEP   58
    SAVE HEAD FOR ALL LAYERS
    SAVE DRAWDOWN FOR ALL LAYERS
    SAVE BUDGET
    PRINT HEAD FOR ALL LAYERS
    PRINT BUDGET
 UBDSV1 SAVING "         STORAGE" ON UNIT  53 AT TIME STEP 58, STRESS PERIOD   2
 UBDSV2 SAVING "   CONSTANT HEAD" ON UNIT  53 AT TIME STEP 58, STRESS PERIOD   2
 UBDSV1 SAVING "FLOW RIGHT FACE " ON UNIT  53 AT TIME STEP 58, STRESS PERIOD   2
 UBDSV1 SAVING "FLOW FRONT FACE " ON UNIT  53 AT TIME STEP 58, STRESS PERIOD   2
 UBDSV1 SAVING "FLOW LOWER FACE " ON UNIT  53 AT TIME STEP 58, STRESS PERIOD   2
1
              HEAD IN LAYER   1 AT END OF TIME STEP  58 IN STRESS PERIOD    2
  ---------------------------------------------------------------------------

            1           2           3           4           5           6           7           8           9          10
 ........................................................................................................................
   1    9.997       8.890       7.782       6.673       5.564       4.454       3.342       2.230       1.117      3.7110E-03
   2    9.997       8.890       7.782       6.673       5.564       4.454       3.342       2.230       1.117      3.7110E-03
   3    9.997       8.890       7.782       6.673       5.564       4.454       3.342       2.230       1.117      3.7110E-03
   4    9.997       8.890       7.782       6.673       5.564       4.454       3.342       2.230       1.117      3.7110E-03
   5    9.997       8.890       7.782       6.673       5.564       4.454       3.342       2.230       1.117      3.7110E-03
   6    9.997       8.890       7.782       6.673       5.564       4.454       3.342       2.230       1.117      3.7110E-03
   7    9.997       8.890       7.782       6.673       5.564       4.454       3.342       2.230       1.117      3.7110E-03
   8    9.997       8.890       7.782       6.673       5.564       4.454       3.342       2.230       1.117      3.7110E-03
   9    9.997       8.890       7.782       6.673       5.564       4.454       3.342       2.230       1.117      3.7110E-03
  10    9.997       8.890       7.782       6.673       5.564       4.454       3.342       2.230       1.117      3.7110E-03
1
              HEAD IN LAYER   2 AT END OF TIME STEP  58 IN STRESS PERIOD    2
  ---------------------------------------------------------------------------

            1           2           3           4           5           6           7           8           9          10
 ........................................................................................................................
   1    9.997       8.890       7.782       6.673       5.564       4.454       3.342       2.230       1.117      3.7110E-03
   2    9.997       8.890       7.782       6.673       5.564       4.454       3.342       2.230       1.117      3.7110E-03
   3    9.997       8.890       7.782       6.673       5.564       4.454       3.342       2.230       1.117      3.7110E-03
   4    9.997       8.890       7.782       6.673       5.564       4.454       3.342       2.230       1.117      3.7110E-03
   5    9.997       8.890       7.782       6.673       5.564       4.454       3.342       2.230       1.117      3.7110E-03
   6    9.997       8.890       7.782       6.673       5.564       4.454       3.342       2.230       1.117      3.7110E-03
   7    9.997       8.890       7.782       6.673       5.564       4.454       3.342       2.230       1.117      3.7110E-03
   8    9.997       8.890       7.782       6.673       5.564       4.454       3.342       2.230       1.117      3.7110E-03
   9    9.997       8.890       7.782       6.673       5.564       4.454       3.342       2.230       1.117      3.7110E-03
  10    9.997       8.890       7.782       6.673       5.564       4.454       3.342       2.230       1.117      3.7110E-03
1
              HEAD IN LAYER   3 AT END OF TIME STEP  58 IN STRESS PERIOD    2
  ---------------------------------------------------------------------------

            1           2           3           4           5           6           7           8           9          10
 ........................................................................................................................
   1    9.997       8.890       7.782       6.673       5.564       4.454       3.342       2.230       1.117      3.7110E-03
   2    9.997       8.890       7.782       6.673       5.564       4.454       3.342       2.230       1.117      3.7110E-03
   3    9.997       8.890       7.782       6.673       5.564       4.454       3.342       2.230       1.117      3.7110E-03
   4    9.997       8.890       7.782       6.673       5.564       4.454       3.342       2.230       1.117      3.7110E-03
   5    9.997       8.890       7.782       6.673       5.564       4.454       3.342       2.230       1.117      3.7110E-03
   6    9.997       8.890       7.782       6.673       5.564       4.454       3.342       2.230       1.117      3.7110E-03
   7    9.997       8.890       7.782       6.673       5.564       4.454       3.342       2.230       1.117      3.7110E-03
   8    9.997       8.890       7.782       6.673       5.564       4.454       3.342       2.230       1.117      3.7110E-03
   9    9.997       8.890       7.782       6.673       5.564       4.454       3.342       2.230       1.117      3.7110E-03
  10    9.997       8.890       7.782       6.673       5.564       4.454       3.342       2.230       1.117      3.7110E-03

 HEAD WILL BE SAVED ON UNIT   51 AT END OF TIME STEP   58, STRESS PERIOD    2

 DRAWDOWN WILL BE SAVED ON UNIT   52 AT END OF TIME STEP   58, STRESS PERIOD    2
1
  VOLUMETRIC BUDGET FOR ENTIRE MODEL AT END OF TIME STEP   58, STRESS PERIOD   2
  ------------------------------------------------------------------------------

     CUMULATIVE VOLUMES      L**3       RATES FOR THIS TIME STEP      L**3/T
     ------------------                 ------------------------

           IN:                                      IN:
           ---                                      ---
             STORAGE =       24973.9824               STORAGE =           2.9405
       CONSTANT HEAD =           0.0000         CONSTANT HEAD =           0.0000
               WELLS =           0.0000                 WELLS =           0.0000
       RIVER LEAKAGE =       24794.6289         RIVER LEAKAGE =         553.6068

            TOTAL IN =       49768.6094              TOTAL IN =         556.5472

          OUT:                                     OUT:
          ----                                     ----
             STORAGE =       1.5901E-03               STORAGE =       2.1156E-04
       CONSTANT HEAD =           0.0000         CONSTANT HEAD =           0.0000
               WELLS =           0.0000                 WELLS =           0.0000
       RIVER LEAKAGE =       49772.2695         RIVER LEAKAGE =         556.6485

           TOTAL OUT =       49772.2695             TOTAL OUT =         556.6487

            IN - OUT =          -3.6602              IN - OUT =          -0.1014

 PERCENT DISCREPANCY =          -0.01     PERCENT DISCREPANCY =          -0.02






         TIME SUMMARY AT END OF TIME STEP   58 IN STRESS PERIOD    2
                    SECONDS     MINUTES      HOURS       DAYS        YEARS
                    -----------------------------------------------------------
   TIME STEP LENGTH  86400.      1440.0      24.000      1.0000     2.73785E-03
 STRESS PERIOD TIME 5.01120E+06  83520.      1392.0      58.000     0.15880    
         TOTAL TIME 5.09760E+06  84960.      1416.0      59.000     0.16153    
1

 SOLVING FOR HEAD 

 OUTPUT CONTROL FOR STRESS PERIOD    2   TIME STEP   59
    SAVE HEAD FOR ALL LAYERS
    SAVE DRAWDOWN FOR ALL LAYERS
    SAVE BUDGET
    PRINT HEAD FOR ALL LAYERS
    PRINT BUDGET
 UBDSV1 SAVING "         STORAGE" ON UNIT  53 AT TIME STEP 59, STRESS PERIOD   2
 UBDSV2 SAVING "   CONSTANT HEAD" ON UNIT  53 AT TIME STEP 59, STRESS PERIOD   2
 UBDSV1 SAVING "FLOW RIGHT FACE " ON UNIT  53 AT TIME STEP 59, STRESS PERIOD   2
 UBDSV1 SAVING "FLOW FRONT FACE " ON UNIT  53 AT TIME STEP 59, STRESS PERIOD   2
 UBDSV1 SAVING "FLOW LOWER FACE " ON UNIT  53 AT TIME STEP 59, STRESS PERIOD   2
1
              HEAD IN LAYER   1 AT END OF TIME STEP  59 IN STRESS PERIOD    2
  ---------------------------------------------------------------------------

            1           2           3           4           5           6           7           8           9          10
 ........................................................................................................................
   1    9.997       8.889       7.781       6.672       5.563       4.453       3.341       2.229       1.117      3.7099E-03
   2    9.997       8.889       7.781       6.672       5.563       4.453       3.341       2.229       1.117      3.7099E-03
   3    9.997       8.889       7.781       6.672       5.563       4.453       3.341       2.229       1.117      3.7099E-03
   4    9.997       8.889       7.781       6.672       5.563       4.453       3.341       2.229       1.117      3.7099E-03
   5    9.997       8.889       7.781       6.672       5.563       4.453       3.341       2.229       1.117      3.7099E-03
   6    9.997       8.889       7.781       6.672       5.563       4.453       3.341       2.229       1.117      3.7099E-03
   7    9.997       8.889       7.781       6.672       5.563       4.453       3.341       2.229       1.117      3.7099E-03
   8    9.997       8.889       7.781       6.672       5.563       4.453       3.341       2.229       1.117      3.7099E-03
   9    9.997       8.889       7.781       6.672       5.563       4.453       3.341       2.229       1.117      3.7099E-03
  10    9.997       8.889       7.781       6.672       5.563       4.453       3.341       2.229       1.117      3.7099E-03
1
              HEAD IN LAYER   2 AT END OF TIME STEP  59 IN STRESS PERIOD    2
  ---------------------------------------------------------------------------

            1           2           3           4           5           6           7           8           9          10
 ........................................................................................................................
   1    9.997       8.889       7.781       6.672       5.563       4.453       3.341       2.229       1.117      3.7099E-03
   2    9.997       8.889       7.781       6.672       5.563       4.453       3.341       2.229       1.117      3.7099E-03
   3    9.997       8.889       7.781       6.672       5.563       4.453       3.341       2.229       1.117      3.7099E-03
   4    9.997       8.889       7.781       6.672       5.563       4.453       3.341       2.229       1.117      3.7099E-03
   5    9.997       8.889       7.781       6.672       5.563       4.453       3.341       2.229       1.117      3.7099E-03
   6    9.997       8.889       7.781       6.672       5.563       4.453       3.341       2.229       1.117      3.7099E-03
   7    9.997       8.889       7.781       6.672       5.563       4.453       3.341       2.229       1.117      3.7099E-03
   8    9.997       8.889       7.781       6.672       5.563       4.453       3.341       2.229       1.117      3.7099E-03
   9    9.997       8.889       7.781       6.672       5.563       4.453       3.341       2.229       1.117      3.7099E-03
  10    9.997       8.889       7.781       6.672       5.563       4.453       3.341       2.229       1.117      3.7099E-03
1
              HEAD IN LAYER   3 AT END OF TIME STEP  59 IN STRESS PERIOD    2
  ---------------------------------------------------------------------------

            1           2           3           4           5           6           7           8           9          10
 ........................................................................................................................
   1    9.997       8.889       7.781       6.672       5.563       4.453       3.341       2.229       1.117      3.7099E-03
   2    9.997       8.889       7.781       6.672       5.563       4.453       3.341       2.229       1.117      3.7099E-03
   3    9.997       8.889       7.781       6.672       5.563       4.453       3.341       2.229       1.117      3.7099E-03
   4    9.997       8.889       7.781       6.672       5.563       4.453       3.341       2.229       1.117      3.7099E-03
   5    9.997       8.889       7.781       6.672       5.563       4.453       3.341       2.229       1.117      3.7099E-03
   6    9.997       8.889       7.781       6.672       5.563       4.453       3.341       2.229       1.117      3.7099E-03
   7    9.997       8.889       7.781       6.672       5.563       4.453       3.341       2.229       1.117      3.7099E-03
   8    9.997       8.889       7.781       6.672       5.563       4.453       3.341       2.229       1.117      3.7099E-03
   9    9.997       8.889       7.781       6.672       5.563       4.453       3.341       2.229       1.117      3.7099E-03
  10    9.997       8.889       7.781       6.672       5.563       4.453       3.341       2.229       1.117      3.7099E-03

 HEAD WILL BE SAVED ON UNIT   51 AT END OF TIME STEP   59, STRESS PERIOD    2

 DRAWDOWN WILL BE SAVED ON UNIT   52 AT END OF TIME STEP   59, STRESS PERIOD    2
1
  VOLUMETRIC BUDGET FOR ENTIRE MODEL AT END OF TIME STEP   59, STRESS PERIOD   2
  ------------------------------------------------------------------------------

     CUMULATIVE VOLUMES      L**3       RATES FOR THIS TIME STEP      L**3/T
     ------------------                 ------------------------

           IN:                                      IN:
           ---                                      ---
             STORAGE =       24976.6074               STORAGE =           2.6244
       CONSTANT HEAD =           0.0000         CONSTANT HEAD =           0.0000
               WELLS =           0.0000                 WELLS =           0.0000
       RIVER LEAKAGE =       25348.3926         RIVER LEAKAGE =         553.7645

            TOTAL IN =       50325.0000              TOTAL IN =         556.3889

          OUT:                                     OUT:
          ----                                     ----
             STORAGE =       1.6267E-03               STORAGE =       3.6620E-05
       CONSTANT HEAD =           0.0000         CONSTANT HEAD =           0.0000
               WELLS =           0.0000                 WELLS =           0.0000
       RIVER LEAKAGE =       50328.7617         RIVER LEAKAGE =         556.4908

           TOTAL OUT =       50328.7617             TOTAL OUT =         556.4909

            IN - OUT =          -3.7617              IN - OUT =          -0.1020

 PERCENT DISCREPANCY =          -0.01     PERCENT DISCREPANCY =          -0.02






         TIME SUMMARY AT END OF TIME STEP   59 IN STRESS PERIOD    2
                    SECONDS     MINUTES      HOURS       DAYS        YEARS
                    -----------------------------------------------------------
   TIME STEP LENGTH  86400.      1440.0      24.000      1.0000     2.73785E-03
 STRESS PERIOD TIME 5.09760E+06  84960.      1416.0      59.000     0.16153    
         TOTAL TIME 5.18400E+06  86400.      1440.0      60.000     0.16427    
1

 SOLVING FOR HEAD 

 OUTPUT CONTROL FOR STRESS PERIOD    2   TIME STEP   60
    SAVE HEAD FOR ALL LAYERS
    SAVE DRAWDOWN FOR ALL LAYERS
    SAVE BUDGET
    PRINT HEAD FOR ALL LAYERS
    PRINT BUDGET
 UBDSV1 SAVING "         STORAGE" ON UNIT  53 AT TIME STEP 60, STRESS PERIOD   2
 UBDSV2 SAVING "   CONSTANT HEAD" ON UNIT  53 AT TIME STEP 60, STRESS PERIOD   2
 UBDSV1 SAVING "FLOW RIGHT FACE " ON UNIT  53 AT TIME STEP 60, STRESS PERIOD   2
 UBDSV1 SAVING "FLOW FRONT FACE " ON UNIT  53 AT TIME STEP 60, STRESS PERIOD   2
 UBDSV1 SAVING "FLOW LOWER FACE " ON UNIT  53 AT TIME STEP 60, STRESS PERIOD   2
1
              HEAD IN LAYER   1 AT END OF TIME STEP  60 IN STRESS PERIOD    2
  ---------------------------------------------------------------------------

            1           2           3           4           5           6           7           8           9          10
 ........................................................................................................................
   1    9.997       8.889       7.781       6.672       5.562       4.452       3.341       2.229       1.116      3.7090E-03
   2    9.997       8.889       7.781       6.672       5.562       4.452       3.341       2.229       1.116      3.7090E-03
   3    9.997       8.889       7.781       6.672       5.562       4.452       3.341       2.229       1.116      3.7090E-03
   4    9.997       8.889       7.781       6.672       5.562       4.452       3.341       2.229       1.116      3.7090E-03
   5    9.997       8.889       7.781       6.672       5.562       4.452       3.341       2.229       1.116      3.7090E-03
   6    9.997       8.889       7.781       6.672       5.562       4.452       3.341       2.229       1.116      3.7090E-03
   7    9.997       8.889       7.781       6.672       5.562       4.452       3.341       2.229       1.116      3.7090E-03
   8    9.997       8.889       7.781       6.672       5.562       4.452       3.341       2.229       1.116      3.7090E-03
   9    9.997       8.889       7.781       6.672       5.562       4.452       3.341       2.229       1.116      3.7090E-03
  10    9.997       8.889       7.781       6.672       5.562       4.452       3.341       2.229       1.116      3.7090E-03
1
              HEAD IN LAYER   2 AT END OF TIME STEP  60 IN STRESS PERIOD    2
  ---------------------------------------------------------------------------

            1           2           3           4           5           6           7           8           9          10
 ........................................................................................................................
   1    9.997       8.889       7.781       6.672       5.562       4.452       3.341       2.229       1.116      3.7090E-03
   2    9.997       8.889       7.781       6.672       5.562       4.452       3.341       2.229       1.116      3.7090E-03
   3    9.997       8.889       7.781       6.672       5.562       4.452       3.341       2.229       1.116      3.7090E-03
   4    9.997       8.889       7.781       6.672       5.562       4.452       3.341       2.229       1.116      3.7090E-03
   5    9.997       8.889       7.781       6.672       5.562       4.452       3.341       2.229       1.116      3.7090E-03
   6    9.997       8.889       7.781       6.672       5.562       4.452       3.341       2.229       1.116      3.7090E-03
   7    9.997       8.889       7.781       6.672       5.562       4.452       3.341       2.229       1.116      3.7090E-03
   8    9.997       8.889       7.781       6.672       5.562       4.452       3.341       2.229       1.116      3.7090E-03
   9    9.997       8.889       7.781       6.672       5.562       4.452       3.341       2.229       1.116      3.7090E-03
  10    9.997       8.889       7.781       6.672       5.562       4.452       3.341       2.229       1.116      3.7090E-03
1
              HEAD IN LAYER   3 AT END OF TIME STEP  60 IN STRESS PERIOD    2
  ---------------------------------------------------------------------------

            1           2           3           4           5           6           7           8           9          10
 ........................................................................................................................
   1    9.997       8.889       7.781       6.672       5.562       4.452       3.341       2.229       1.116      3.7090E-03
   2    9.997       8.889       7.781       6.672       5.562       4.452       3.341       2.229       1.116      3.7090E-03
   3    9.997       8.889       7.781       6.672       5.562       4.452       3.341       2.229       1.116      3.7090E-03
   4    9.997       8.889       7.781       6.672       5.562       4.452       3.341       2.229       1.116      3.7090E-03
   5    9.997       8.889       7.781       6.672       5.562       4.452       3.341       2.229       1.116      3.7090E-03
   6    9.997       8.889       7.781       6.672       5.562       4.452       3.341       2.229       1.116      3.7090E-03
   7    9.997       8.889       7.781       6.672       5.562       4.452       3.341       2.229       1.116      3.7090E-03
   8    9.997       8.889       7.781       6.672       5.562       4.452       3.341       2.229       1.116      3.7090E-03
   9    9.997       8.889       7.781       6.672       5.562       4.452       3.341       2.229       1.116      3.7090E-03
  10    9.997       8.889       7.781       6.672       5.562       4.452       3.341       2.229       1.116      3.7090E-03

 HEAD WILL BE SAVED ON UNIT   51 AT END OF TIME STEP   60, STRESS PERIOD    2

 DRAWDOWN WILL BE SAVED ON UNIT   52 AT END OF TIME STEP   60, STRESS PERIOD    2
1
  VOLUMETRIC BUDGET FOR ENTIRE MODEL AT END OF TIME STEP   60, STRESS PERIOD   2
  ------------------------------------------------------------------------------

     CUMULATIVE VOLUMES      L**3       RATES FOR THIS TIME STEP      L**3/T
     ------------------                 ------------------------

           IN:                                      IN:
           ---                                      ---
             STORAGE =       24978.9492               STORAGE =           2.3424
       CONSTANT HEAD =           0.0000         CONSTANT HEAD =           0.0000
               WELLS =           0.0000                 WELLS =           0.0000
       RIVER LEAKAGE =       25902.2969         RIVER LEAKAGE =         553.9051

            TOTAL IN =       50881.2461              TOTAL IN =         556.2475

          OUT:                                     OUT:
          ----                                     ----
             STORAGE =       1.6267E-03               STORAGE =           0.0000
       CONSTANT HEAD =           0.0000         CONSTANT HEAD =           0.0000
               WELLS =           0.0000                 WELLS =           0.0000
       RIVER LEAKAGE =       50885.1094         RIVER LEAKAGE =         556.3496

           TOTAL OUT =       50885.1094             TOTAL OUT =         556.3496

            IN - OUT =          -3.8633              IN - OUT =          -0.1021

 PERCENT DISCREPANCY =          -0.01     PERCENT DISCREPANCY =          -0.02






         TIME SUMMARY AT END OF TIME STEP   60 IN STRESS PERIOD    2
                    SECONDS     MINUTES      HOURS       DAYS        YEARS
                    -----------------------------------------------------------
   TIME STEP LENGTH  86400.      1440.0      24.000      1.0000     2.73785E-03
 STRESS PERIOD TIME 5.18400E+06  86400.      1440.0      60.000     0.16427    
         TOTAL TIME 5.27040E+06  87840.      1464.0      61.000     0.16701    
1

 SOLVING FOR HEAD 

 OUTPUT CONTROL FOR STRESS PERIOD    2   TIME STEP   61
    SAVE HEAD FOR ALL LAYERS
    SAVE DRAWDOWN FOR ALL LAYERS
    SAVE BUDGET
    PRINT HEAD FOR ALL LAYERS
    PRINT BUDGET
 UBDSV1 SAVING "         STORAGE" ON UNIT  53 AT TIME STEP 61, STRESS PERIOD   2
 UBDSV2 SAVING "   CONSTANT HEAD" ON UNIT  53 AT TIME STEP 61, STRESS PERIOD   2
 UBDSV1 SAVING "FLOW RIGHT FACE " ON UNIT  53 AT TIME STEP 61, STRESS PERIOD   2
 UBDSV1 SAVING "FLOW FRONT FACE " ON UNIT  53 AT TIME STEP 61, STRESS PERIOD   2
 UBDSV1 SAVING "FLOW LOWER FACE " ON UNIT  53 AT TIME STEP 61, STRESS PERIOD   2
1
              HEAD IN LAYER   1 AT END OF TIME STEP  61 IN STRESS PERIOD    2
  ---------------------------------------------------------------------------

            1           2           3           4           5           6           7           8           9          10
 ........................................................................................................................
   1    9.997       8.889       7.780       6.671       5.562       4.451       3.340       2.228       1.116      3.7082E-03
   2    9.997       8.889       7.780       6.671       5.562       4.451       3.340       2.228       1.116      3.7082E-03
   3    9.997       8.889       7.780       6.671       5.562       4.451       3.340       2.228       1.116      3.7082E-03
   4    9.997       8.889       7.780       6.671       5.562       4.451       3.340       2.228       1.116      3.7082E-03
   5    9.997       8.889       7.780       6.671       5.562       4.451       3.340       2.228       1.116      3.7082E-03
   6    9.997       8.889       7.780       6.671       5.562       4.451       3.340       2.228       1.116      3.7082E-03
   7    9.997       8.889       7.780       6.671       5.562       4.451       3.340       2.228       1.116      3.7082E-03
   8    9.997       8.889       7.780       6.671       5.562       4.451       3.340       2.228       1.116      3.7082E-03
   9    9.997       8.889       7.780       6.671       5.562       4.451       3.340       2.228       1.116      3.7082E-03
  10    9.997       8.889       7.780       6.671       5.562       4.451       3.340       2.228       1.116      3.7082E-03
1
              HEAD IN LAYER   2 AT END OF TIME STEP  61 IN STRESS PERIOD    2
  ---------------------------------------------------------------------------

            1           2           3           4           5           6           7           8           9          10
 ........................................................................................................................
   1    9.997       8.889       7.780       6.671       5.562       4.451       3.340       2.228       1.116      3.7082E-03
   2    9.997       8.889       7.780       6.671       5.562       4.451       3.340       2.228       1.116      3.7082E-03
   3    9.997       8.889       7.780       6.671       5.562       4.451       3.340       2.228       1.116      3.7082E-03
   4    9.997       8.889       7.780       6.671       5.562       4.451       3.340       2.228       1.116      3.7082E-03
   5    9.997       8.889       7.780       6.671       5.562       4.451       3.340       2.228       1.116      3.7082E-03
   6    9.997       8.889       7.780       6.671       5.562       4.451       3.340       2.228       1.116      3.7082E-03
   7    9.997       8.889       7.780       6.671       5.562       4.451       3.340       2.228       1.116      3.7082E-03
   8    9.997       8.889       7.780       6.671       5.562       4.451       3.340       2.228       1.116      3.7082E-03
   9    9.997       8.889       7.780       6.671       5.562       4.451       3.340       2.228       1.116      3.7082E-03
  10    9.997       8.889       7.780       6.671       5.562       4.451       3.340       2.228       1.116      3.7082E-03
1
              HEAD IN LAYER   3 AT END OF TIME STEP  61 IN STRESS PERIOD    2
  ---------------------------------------------------------------------------

            1           2           3           4           5           6           7           8           9          10
 ........................................................................................................................
   1    9.997       8.889       7.780       6.671       5.562       4.451       3.340       2.228       1.116      3.7082E-03
   2    9.997       8.889       7.780       6.671       5.562       4.451       3.340       2.228       1.116      3.7082E-03
   3    9.997       8.889       7.780       6.671       5.562       4.451       3.340       2.228       1.116      3.7082E-03
   4    9.997       8.889       7.780       6.671       5.562       4.451       3.340       2.228       1.116      3.7082E-03
   5    9.997       8.889       7.780       6.671       5.562       4.451       3.340       2.228       1.116      3.7082E-03
   6    9.997       8.889       7.780       6.671       5.562       4.451       3.340       2.228       1.116      3.7082E-03
   7    9.997       8.889       7.780       6.671       5.562       4.451       3.340       2.228       1.116      3.7082E-03
   8    9.997       8.889       7.780       6.671       5.562       4.451       3.340       2.228       1.116      3.7082E-03
   9    9.997       8.889       7.780       6.671       5.562       4.451       3.340       2.228       1.116      3.7082E-03
  10    9.997       8.889       7.780       6.671       5.562       4.451       3.340       2.228       1.116      3.7082E-03

 HEAD WILL BE SAVED ON UNIT   51 AT END OF TIME STEP   61, STRESS PERIOD    2

 DRAWDOWN WILL BE SAVED ON UNIT   52 AT END OF TIME STEP   61, STRESS PERIOD    2
1
  VOLUMETRIC BUDGET FOR ENTIRE MODEL AT END OF TIME STEP   61, STRESS PERIOD   2
  ------------------------------------------------------------------------------

     CUMULATIVE VOLUMES      L**3       RATES FOR THIS TIME STEP      L**3/T
     ------------------                 ------------------------

           IN:                                      IN:
           ---                                      ---
             STORAGE =       24981.0391               STORAGE =           2.0898
       CONSTANT HEAD =           0.0000         CONSTANT HEAD =           0.0000
               WELLS =           0.0000                 WELLS =           0.0000
       RIVER LEAKAGE =       26456.3281         RIVER LEAKAGE =         554.0305

            TOTAL IN =       51437.3672              TOTAL IN =         556.1203

          OUT:                                     OUT:
          ----                                     ----
             STORAGE =       2.7391E-03               STORAGE =       1.1124E-03
       CONSTANT HEAD =           0.0000         CONSTANT HEAD =           0.0000
               WELLS =           0.0000                 WELLS =           0.0000
       RIVER LEAKAGE =       51441.3320         RIVER LEAKAGE =         556.2233

           TOTAL OUT =       51441.3359             TOTAL OUT =         556.2244

            IN - OUT =          -3.9688              IN - OUT =          -0.1041

 PERCENT DISCREPANCY =          -0.01     PERCENT DISCREPANCY =          -0.02






         TIME SUMMARY AT END OF TIME STEP   61 IN STRESS PERIOD    2
                    SECONDS     MINUTES      HOURS       DAYS        YEARS
                    -----------------------------------------------------------
   TIME STEP LENGTH  86400.      1440.0      24.000      1.0000     2.73785E-03
 STRESS PERIOD TIME 5.27040E+06  87840.      1464.0      61.000     0.16701    
         TOTAL TIME 5.35680E+06  89280.      1488.0      62.000     0.16975    
1

 SOLVING FOR HEAD 

 OUTPUT CONTROL FOR STRESS PERIOD    2   TIME STEP   62
    SAVE HEAD FOR ALL LAYERS
    SAVE DRAWDOWN FOR ALL LAYERS
    SAVE BUDGET
    PRINT HEAD FOR ALL LAYERS
    PRINT BUDGET
 UBDSV1 SAVING "         STORAGE" ON UNIT  53 AT TIME STEP 62, STRESS PERIOD   2
 UBDSV2 SAVING "   CONSTANT HEAD" ON UNIT  53 AT TIME STEP 62, STRESS PERIOD   2
 UBDSV1 SAVING "FLOW RIGHT FACE " ON UNIT  53 AT TIME STEP 62, STRESS PERIOD   2
 UBDSV1 SAVING "FLOW FRONT FACE " ON UNIT  53 AT TIME STEP 62, STRESS PERIOD   2
 UBDSV1 SAVING "FLOW LOWER FACE " ON UNIT  53 AT TIME STEP 62, STRESS PERIOD   2
1
              HEAD IN LAYER   1 AT END OF TIME STEP  62 IN STRESS PERIOD    2
  ---------------------------------------------------------------------------

            1           2           3           4           5           6           7           8           9          10
 ........................................................................................................................
   1    9.997       8.888       7.780       6.671       5.561       4.451       3.339       2.228       1.116      3.7074E-03
   2    9.997       8.888       7.780       6.671       5.561       4.451       3.339       2.228       1.116      3.7074E-03
   3    9.997       8.888       7.780       6.671       5.561       4.451       3.339       2.228       1.116      3.7074E-03
   4    9.997       8.888       7.780       6.671       5.561       4.451       3.339       2.228       1.116      3.7074E-03
   5    9.997       8.888       7.780       6.671       5.561       4.451       3.339       2.228       1.116      3.7074E-03
   6    9.997       8.888       7.780       6.671       5.561       4.451       3.339       2.228       1.116      3.7074E-03
   7    9.997       8.888       7.780       6.671       5.561       4.451       3.339       2.228       1.116      3.7074E-03
   8    9.997       8.888       7.780       6.671       5.561       4.451       3.339       2.228       1.116      3.7074E-03
   9    9.997       8.888       7.780       6.671       5.561       4.451       3.339       2.228       1.116      3.7074E-03
  10    9.997       8.888       7.780       6.671       5.561       4.451       3.339       2.228       1.116      3.7074E-03
1
              HEAD IN LAYER   2 AT END OF TIME STEP  62 IN STRESS PERIOD    2
  ---------------------------------------------------------------------------

            1           2           3           4           5           6           7           8           9          10
 ........................................................................................................................
   1    9.997       8.888       7.780       6.671       5.561       4.451       3.339       2.228       1.116      3.7074E-03
   2    9.997       8.888       7.780       6.671       5.561       4.451       3.339       2.228       1.116      3.7074E-03
   3    9.997       8.888       7.780       6.671       5.561       4.451       3.339       2.228       1.116      3.7074E-03
   4    9.997       8.888       7.780       6.671       5.561       4.451       3.339       2.228       1.116      3.7074E-03
   5    9.997       8.888       7.780       6.671       5.561       4.451       3.339       2.228       1.116      3.7074E-03
   6    9.997       8.888       7.780       6.671       5.561       4.451       3.339       2.228       1.116      3.7074E-03
   7    9.997       8.888       7.780       6.671       5.561       4.451       3.339       2.228       1.116      3.7074E-03
   8    9.997       8.888       7.780       6.671       5.561       4.451       3.339       2.228       1.116      3.7074E-03
   9    9.997       8.888       7.780       6.671       5.561       4.451       3.339       2.228       1.116      3.7074E-03
  10    9.997       8.888       7.780       6.671       5.561       4.451       3.339       2.228       1.116      3.7074E-03
1
              HEAD IN LAYER   3 AT END OF TIME STEP  62 IN STRESS PERIOD    2
  ---------------------------------------------------------------------------

            1           2           3           4           5           6           7           8           9          10
 ........................................................................................................................
   1    9.997       8.888       7.780       6.671       5.561       4.451       3.339       2.228       1.116      3.7074E-03
   2    9.997       8.888       7.780       6.671       5.561       4.451       3.339       2.228       1.116      3.7074E-03
   3    9.997       8.888       7.780       6.671       5.561       4.451       3.339       2.228       1.116      3.7074E-03
   4    9.997       8.888       7.780       6.671       5.561       4.451       3.339       2.228       1.116      3.7074E-03
   5    9.997       8.888       7.780       6.671       5.561       4.451       3.339       2.228       1.116      3.7074E-03
   6    9.997       8.888       7.780       6.671       5.561       4.451       3.339       2.228       1.116      3.7074E-03
   7    9.997       8.888       7.780       6.671       5.561       4.451       3.339       2.228       1.116      3.7074E-03
   8    9.997       8.888       7.780       6.671       5.561       4.451       3.339       2.228       1.116      3.7074E-03
   9    9.997       8.888       7.780       6.671       5.561       4.451       3.339       2.228       1.116      3.7074E-03
  10    9.997       8.888       7.780       6.671       5.561       4.451       3.339       2.228       1.116      3.7074E-03

 HEAD WILL BE SAVED ON UNIT   51 AT END OF TIME STEP   62, STRESS PERIOD    2

 DRAWDOWN WILL BE SAVED ON UNIT   52 AT END OF TIME STEP   62, STRESS PERIOD    2
1
  VOLUMETRIC BUDGET FOR ENTIRE MODEL AT END OF TIME STEP   62, STRESS PERIOD   2
  ------------------------------------------------------------------------------

     CUMULATIVE VOLUMES      L**3       RATES FOR THIS TIME STEP      L**3/T
     ------------------                 ------------------------

           IN:                                      IN:
           ---                                      ---
             STORAGE =       24982.9043               STORAGE =           1.8658
       CONSTANT HEAD =           0.0000         CONSTANT HEAD =           0.0000
               WELLS =           0.0000                 WELLS =           0.0000
       RIVER LEAKAGE =       27010.4707         RIVER LEAKAGE =         554.1424

            TOTAL IN =       51993.3750              TOTAL IN =         556.0082

          OUT:                                     OUT:
          ----                                     ----
             STORAGE =       3.4216E-03               STORAGE =       6.8253E-04
       CONSTANT HEAD =           0.0000         CONSTANT HEAD =           0.0000
               WELLS =           0.0000                 WELLS =           0.0000
       RIVER LEAKAGE =       51997.4414         RIVER LEAKAGE =         556.1108

           TOTAL OUT =       51997.4453             TOTAL OUT =         556.1115

            IN - OUT =          -4.0703              IN - OUT =          -0.1032

 PERCENT DISCREPANCY =          -0.01     PERCENT DISCREPANCY =          -0.02






         TIME SUMMARY AT END OF TIME STEP   62 IN STRESS PERIOD    2
                    SECONDS     MINUTES      HOURS       DAYS        YEARS
                    -----------------------------------------------------------
   TIME STEP LENGTH  86400.      1440.0      24.000      1.0000     2.73785E-03
 STRESS PERIOD TIME 5.35680E+06  89280.      1488.0      62.000     0.16975    
         TOTAL TIME 5.44320E+06  90720.      1512.0      63.000     0.17248    
1

 SOLVING FOR HEAD 

 OUTPUT CONTROL FOR STRESS PERIOD    2   TIME STEP   63
    SAVE HEAD FOR ALL LAYERS
    SAVE DRAWDOWN FOR ALL LAYERS
    SAVE BUDGET
    PRINT HEAD FOR ALL LAYERS
    PRINT BUDGET
 UBDSV1 SAVING "         STORAGE" ON UNIT  53 AT TIME STEP 63, STRESS PERIOD   2
 UBDSV2 SAVING "   CONSTANT HEAD" ON UNIT  53 AT TIME STEP 63, STRESS PERIOD   2
 UBDSV1 SAVING "FLOW RIGHT FACE " ON UNIT  53 AT TIME STEP 63, STRESS PERIOD   2
 UBDSV1 SAVING "FLOW FRONT FACE " ON UNIT  53 AT TIME STEP 63, STRESS PERIOD   2
 UBDSV1 SAVING "FLOW LOWER FACE " ON UNIT  53 AT TIME STEP 63, STRESS PERIOD   2
1
              HEAD IN LAYER   1 AT END OF TIME STEP  63 IN STRESS PERIOD    2
  ---------------------------------------------------------------------------

            1           2           3           4           5           6           7           8           9          10
 ........................................................................................................................
   1    9.997       8.888       7.779       6.670       5.560       4.450       3.339       2.228       1.116      3.7067E-03
   2    9.997       8.888       7.779       6.670       5.560       4.450       3.339       2.228       1.116      3.7067E-03
   3    9.997       8.888       7.779       6.670       5.560       4.450       3.339       2.228       1.116      3.7067E-03
   4    9.997       8.888       7.779       6.670       5.560       4.450       3.339       2.228       1.116      3.7067E-03
   5    9.997       8.888       7.779       6.670       5.560       4.450       3.339       2.228       1.116      3.7067E-03
   6    9.997       8.888       7.779       6.670       5.560       4.450       3.339       2.228       1.116      3.7067E-03
   7    9.997       8.888       7.779       6.670       5.560       4.450       3.339       2.228       1.116      3.7067E-03
   8    9.997       8.888       7.779       6.670       5.560       4.450       3.339       2.228       1.116      3.7067E-03
   9    9.997       8.888       7.779       6.670       5.560       4.450       3.339       2.228       1.116      3.7067E-03
  10    9.997       8.888       7.779       6.670       5.560       4.450       3.339       2.228       1.116      3.7067E-03
1
              HEAD IN LAYER   2 AT END OF TIME STEP  63 IN STRESS PERIOD    2
  ---------------------------------------------------------------------------

            1           2           3           4           5           6           7           8           9          10
 ........................................................................................................................
   1    9.997       8.888       7.779       6.670       5.560       4.450       3.339       2.228       1.116      3.7067E-03
   2    9.997       8.888       7.779       6.670       5.560       4.450       3.339       2.228       1.116      3.7067E-03
   3    9.997       8.888       7.779       6.670       5.560       4.450       3.339       2.228       1.116      3.7067E-03
   4    9.997       8.888       7.779       6.670       5.560       4.450       3.339       2.228       1.116      3.7067E-03
   5    9.997       8.888       7.779       6.670       5.560       4.450       3.339       2.228       1.116      3.7067E-03
   6    9.997       8.888       7.779       6.670       5.560       4.450       3.339       2.228       1.116      3.7067E-03
   7    9.997       8.888       7.779       6.670       5.560       4.450       3.339       2.228       1.116      3.7067E-03
   8    9.997       8.888       7.779       6.670       5.560       4.450       3.339       2.228       1.116      3.7067E-03
   9    9.997       8.888       7.779       6.670       5.560       4.450       3.339       2.228       1.116      3.7067E-03
  10    9.997       8.888       7.779       6.670       5.560       4.450       3.339       2.228       1.116      3.7067E-03
1
              HEAD IN LAYER   3 AT END OF TIME STEP  63 IN STRESS PERIOD    2
  ---------------------------------------------------------------------------

            1           2           3           4           5           6           7           8           9          10
 ........................................................................................................................
   1    9.997       8.888       7.779       6.670       5.560       4.450       3.339       2.228       1.116      3.7067E-03
   2    9.997       8.888       7.779       6.670       5.560       4.450       3.339       2.228       1.116      3.7067E-03
   3    9.997       8.888       7.779       6.670       5.560       4.450       3.339       2.228       1.116      3.7067E-03
   4    9.997       8.888       7.779       6.670       5.560       4.450       3.339       2.228       1.116      3.7067E-03
   5    9.997       8.888       7.779       6.670       5.560       4.450       3.339       2.228       1.116      3.7067E-03
   6    9.997       8.888       7.779       6.670       5.560       4.450       3.339       2.228       1.116      3.7067E-03
   7    9.997       8.888       7.779       6.670       5.560       4.450       3.339       2.228       1.116      3.7067E-03
   8    9.997       8.888       7.779       6.670       5.560       4.450       3.339       2.228       1.116      3.7067E-03
   9    9.997       8.888       7.779       6.670       5.560       4.450       3.339       2.228       1.116      3.7067E-03
  10    9.997       8.888       7.779       6.670       5.560       4.450       3.339       2.228       1.116      3.7067E-03

 HEAD WILL BE SAVED ON UNIT   51 AT END OF TIME STEP   63, STRESS PERIOD    2

 DRAWDOWN WILL BE SAVED ON UNIT   52 AT END OF TIME STEP   63, STRESS PERIOD    2
1
  VOLUMETRIC BUDGET FOR ENTIRE MODEL AT END OF TIME STEP   63, STRESS PERIOD   2
  ------------------------------------------------------------------------------

     CUMULATIVE VOLUMES      L**3       RATES FOR THIS TIME STEP      L**3/T
     ------------------                 ------------------------

           IN:                                      IN:
           ---                                      ---
             STORAGE =       24984.5684               STORAGE =           1.6644
       CONSTANT HEAD =           0.0000         CONSTANT HEAD =           0.0000
               WELLS =           0.0000                 WELLS =           0.0000
       RIVER LEAKAGE =       27564.7129         RIVER LEAKAGE =         554.2426

            TOTAL IN =       52549.2812              TOTAL IN =         555.9070

          OUT:                                     OUT:
          ----                                     ----
             STORAGE =       3.8406E-03               STORAGE =       4.1895E-04
       CONSTANT HEAD =           0.0000         CONSTANT HEAD =           0.0000
               WELLS =           0.0000                 WELLS =           0.0000
       RIVER LEAKAGE =       52553.4531         RIVER LEAKAGE =         556.0108

           TOTAL OUT =       52553.4570             TOTAL OUT =         556.0112

            IN - OUT =          -4.1758              IN - OUT =          -0.1042

 PERCENT DISCREPANCY =          -0.01     PERCENT DISCREPANCY =          -0.02






         TIME SUMMARY AT END OF TIME STEP   63 IN STRESS PERIOD    2
                    SECONDS     MINUTES      HOURS       DAYS        YEARS
                    -----------------------------------------------------------
   TIME STEP LENGTH  86400.      1440.0      24.000      1.0000     2.73785E-03
 STRESS PERIOD TIME 5.44320E+06  90720.      1512.0      63.000     0.17248    
         TOTAL TIME 5.52960E+06  92160.      1536.0      64.000     0.17522    
1

 SOLVING FOR HEAD 

 OUTPUT CONTROL FOR STRESS PERIOD    2   TIME STEP   64
    SAVE HEAD FOR ALL LAYERS
    SAVE DRAWDOWN FOR ALL LAYERS
    SAVE BUDGET
    PRINT HEAD FOR ALL LAYERS
    PRINT BUDGET
 UBDSV1 SAVING "         STORAGE" ON UNIT  53 AT TIME STEP 64, STRESS PERIOD   2
 UBDSV2 SAVING "   CONSTANT HEAD" ON UNIT  53 AT TIME STEP 64, STRESS PERIOD   2
 UBDSV1 SAVING "FLOW RIGHT FACE " ON UNIT  53 AT TIME STEP 64, STRESS PERIOD   2
 UBDSV1 SAVING "FLOW FRONT FACE " ON UNIT  53 AT TIME STEP 64, STRESS PERIOD   2
 UBDSV1 SAVING "FLOW LOWER FACE " ON UNIT  53 AT TIME STEP 64, STRESS PERIOD   2
1
              HEAD IN LAYER   1 AT END OF TIME STEP  64 IN STRESS PERIOD    2
  ---------------------------------------------------------------------------

            1           2           3           4           5           6           7           8           9          10
 ........................................................................................................................
   1    9.997       8.888       7.779       6.670       5.560       4.449       3.339       2.227       1.116      3.7061E-03
   2    9.997       8.888       7.779       6.670       5.560       4.449       3.339       2.227       1.116      3.7061E-03
   3    9.997       8.888       7.779       6.670       5.560       4.449       3.339       2.227       1.116      3.7061E-03
   4    9.997       8.888       7.779       6.670       5.560       4.449       3.339       2.227       1.116      3.7061E-03
   5    9.997       8.888       7.779       6.670       5.560       4.449       3.339       2.227       1.116      3.7061E-03
   6    9.997       8.888       7.779       6.670       5.560       4.449       3.339       2.227       1.116      3.7061E-03
   7    9.997       8.888       7.779       6.670       5.560       4.449       3.339       2.227       1.116      3.7061E-03
   8    9.997       8.888       7.779       6.670       5.560       4.449       3.339       2.227       1.116      3.7061E-03
   9    9.997       8.888       7.779       6.670       5.560       4.449       3.339       2.227       1.116      3.7061E-03
  10    9.997       8.888       7.779       6.670       5.560       4.449       3.339       2.227       1.116      3.7061E-03
1
              HEAD IN LAYER   2 AT END OF TIME STEP  64 IN STRESS PERIOD    2
  ---------------------------------------------------------------------------

            1           2           3           4           5           6           7           8           9          10
 ........................................................................................................................
   1    9.997       8.888       7.779       6.670       5.560       4.449       3.339       2.227       1.116      3.7061E-03
   2    9.997       8.888       7.779       6.670       5.560       4.449       3.339       2.227       1.116      3.7061E-03
   3    9.997       8.888       7.779       6.670       5.560       4.449       3.339       2.227       1.116      3.7061E-03
   4    9.997       8.888       7.779       6.670       5.560       4.449       3.339       2.227       1.116      3.7061E-03
   5    9.997       8.888       7.779       6.670       5.560       4.449       3.339       2.227       1.116      3.7061E-03
   6    9.997       8.888       7.779       6.670       5.560       4.449       3.339       2.227       1.116      3.7061E-03
   7    9.997       8.888       7.779       6.670       5.560       4.449       3.339       2.227       1.116      3.7061E-03
   8    9.997       8.888       7.779       6.670       5.560       4.449       3.339       2.227       1.116      3.7061E-03
   9    9.997       8.888       7.779       6.670       5.560       4.449       3.339       2.227       1.116      3.7061E-03
  10    9.997       8.888       7.779       6.670       5.560       4.449       3.339       2.227       1.116      3.7061E-03
1
              HEAD IN LAYER   3 AT END OF TIME STEP  64 IN STRESS PERIOD    2
  ---------------------------------------------------------------------------

            1           2           3           4           5           6           7           8           9          10
 ........................................................................................................................
   1    9.997       8.888       7.779       6.670       5.560       4.449       3.339       2.227       1.116      3.7061E-03
   2    9.997       8.888       7.779       6.670       5.560       4.449       3.339       2.227       1.116      3.7061E-03
   3    9.997       8.888       7.779       6.670       5.560       4.449       3.339       2.227       1.116      3.7061E-03
   4    9.997       8.888       7.779       6.670       5.560       4.449       3.339       2.227       1.116      3.7061E-03
   5    9.997       8.888       7.779       6.670       5.560       4.449       3.339       2.227       1.116      3.7061E-03
   6    9.997       8.888       7.779       6.670       5.560       4.449       3.339       2.227       1.116      3.7061E-03
   7    9.997       8.888       7.779       6.670       5.560       4.449       3.339       2.227       1.116      3.7061E-03
   8    9.997       8.888       7.779       6.670       5.560       4.449       3.339       2.227       1.116      3.7061E-03
   9    9.997       8.888       7.779       6.670       5.560       4.449       3.339       2.227       1.116      3.7061E-03
  10    9.997       8.888       7.779       6.670       5.560       4.449       3.339       2.227       1.116      3.7061E-03

 HEAD WILL BE SAVED ON UNIT   51 AT END OF TIME STEP   64, STRESS PERIOD    2

 DRAWDOWN WILL BE SAVED ON UNIT   52 AT END OF TIME STEP   64, STRESS PERIOD    2
1
  VOLUMETRIC BUDGET FOR ENTIRE MODEL AT END OF TIME STEP   64, STRESS PERIOD   2
  ------------------------------------------------------------------------------

     CUMULATIVE VOLUMES      L**3       RATES FOR THIS TIME STEP      L**3/T
     ------------------                 ------------------------

           IN:                                      IN:
           ---                                      ---
             STORAGE =       24986.0527               STORAGE =           1.4852
       CONSTANT HEAD =           0.0000         CONSTANT HEAD =           0.0000
               WELLS =           0.0000                 WELLS =           0.0000
       RIVER LEAKAGE =       28119.0449         RIVER LEAKAGE =         554.3318

            TOTAL IN =       53105.0977              TOTAL IN =         555.8170

          OUT:                                     OUT:
          ----                                     ----
             STORAGE =       4.1739E-03               STORAGE =       3.3334E-04
       CONSTANT HEAD =           0.0000         CONSTANT HEAD =           0.0000
               WELLS =           0.0000                 WELLS =           0.0000
       RIVER LEAKAGE =       53109.3750         RIVER LEAKAGE =         555.9211

           TOTAL OUT =       53109.3789             TOTAL OUT =         555.9214

            IN - OUT =          -4.2812              IN - OUT =          -0.1044

 PERCENT DISCREPANCY =          -0.01     PERCENT DISCREPANCY =          -0.02






         TIME SUMMARY AT END OF TIME STEP   64 IN STRESS PERIOD    2
                    SECONDS     MINUTES      HOURS       DAYS        YEARS
                    -----------------------------------------------------------
   TIME STEP LENGTH  86400.      1440.0      24.000      1.0000     2.73785E-03
 STRESS PERIOD TIME 5.52960E+06  92160.      1536.0      64.000     0.17522    
         TOTAL TIME 5.61600E+06  93600.      1560.0      65.000     0.17796    
1

 SOLVING FOR HEAD 

 OUTPUT CONTROL FOR STRESS PERIOD    2   TIME STEP   65
    SAVE HEAD FOR ALL LAYERS
    SAVE DRAWDOWN FOR ALL LAYERS
    SAVE BUDGET
    PRINT HEAD FOR ALL LAYERS
    PRINT BUDGET
 UBDSV1 SAVING "         STORAGE" ON UNIT  53 AT TIME STEP 65, STRESS PERIOD   2
 UBDSV2 SAVING "   CONSTANT HEAD" ON UNIT  53 AT TIME STEP 65, STRESS PERIOD   2
 UBDSV1 SAVING "FLOW RIGHT FACE " ON UNIT  53 AT TIME STEP 65, STRESS PERIOD   2
 UBDSV1 SAVING "FLOW FRONT FACE " ON UNIT  53 AT TIME STEP 65, STRESS PERIOD   2
 UBDSV1 SAVING "FLOW LOWER FACE " ON UNIT  53 AT TIME STEP 65, STRESS PERIOD   2
1
              HEAD IN LAYER   1 AT END OF TIME STEP  65 IN STRESS PERIOD    2
  ---------------------------------------------------------------------------

            1           2           3           4           5           6           7           8           9          10
 ........................................................................................................................
   1    9.997       8.888       7.779       6.669       5.559       4.449       3.338       2.227       1.115      3.7056E-03
   2    9.997       8.888       7.779       6.669       5.559       4.449       3.338       2.227       1.115      3.7056E-03
   3    9.997       8.888       7.779       6.669       5.559       4.449       3.338       2.227       1.115      3.7056E-03
   4    9.997       8.888       7.779       6.669       5.559       4.449       3.338       2.227       1.115      3.7056E-03
   5    9.997       8.888       7.779       6.669       5.559       4.449       3.338       2.227       1.115      3.7056E-03
   6    9.997       8.888       7.779       6.669       5.559       4.449       3.338       2.227       1.115      3.7056E-03
   7    9.997       8.888       7.779       6.669       5.559       4.449       3.338       2.227       1.115      3.7056E-03
   8    9.997       8.888       7.779       6.669       5.559       4.449       3.338       2.227       1.115      3.7056E-03
   9    9.997       8.888       7.779       6.669       5.559       4.449       3.338       2.227       1.115      3.7056E-03
  10    9.997       8.888       7.779       6.669       5.559       4.449       3.338       2.227       1.115      3.7056E-03
1
              HEAD IN LAYER   2 AT END OF TIME STEP  65 IN STRESS PERIOD    2
  ---------------------------------------------------------------------------

            1           2           3           4           5           6           7           8           9          10
 ........................................................................................................................
   1    9.997       8.888       7.779       6.669       5.559       4.449       3.338       2.227       1.115      3.7056E-03
   2    9.997       8.888       7.779       6.669       5.559       4.449       3.338       2.227       1.115      3.7056E-03
   3    9.997       8.888       7.779       6.669       5.559       4.449       3.338       2.227       1.115      3.7056E-03
   4    9.997       8.888       7.779       6.669       5.559       4.449       3.338       2.227       1.115      3.7056E-03
   5    9.997       8.888       7.779       6.669       5.559       4.449       3.338       2.227       1.115      3.7056E-03
   6    9.997       8.888       7.779       6.669       5.559       4.449       3.338       2.227       1.115      3.7056E-03
   7    9.997       8.888       7.779       6.669       5.559       4.449       3.338       2.227       1.115      3.7056E-03
   8    9.997       8.888       7.779       6.669       5.559       4.449       3.338       2.227       1.115      3.7056E-03
   9    9.997       8.888       7.779       6.669       5.559       4.449       3.338       2.227       1.115      3.7056E-03
  10    9.997       8.888       7.779       6.669       5.559       4.449       3.338       2.227       1.115      3.7056E-03
1
              HEAD IN LAYER   3 AT END OF TIME STEP  65 IN STRESS PERIOD    2
  ---------------------------------------------------------------------------

            1           2           3           4           5           6           7           8           9          10
 ........................................................................................................................
   1    9.997       8.888       7.779       6.669       5.559       4.449       3.338       2.227       1.115      3.7056E-03
   2    9.997       8.888       7.779       6.669       5.559       4.449       3.338       2.227       1.115      3.7056E-03
   3    9.997       8.888       7.779       6.669       5.559       4.449       3.338       2.227       1.115      3.7056E-03
   4    9.997       8.888       7.779       6.669       5.559       4.449       3.338       2.227       1.115      3.7056E-03
   5    9.997       8.888       7.779       6.669       5.559       4.449       3.338       2.227       1.115      3.7056E-03
   6    9.997       8.888       7.779       6.669       5.559       4.449       3.338       2.227       1.115      3.7056E-03
   7    9.997       8.888       7.779       6.669       5.559       4.449       3.338       2.227       1.115      3.7056E-03
   8    9.997       8.888       7.779       6.669       5.559       4.449       3.338       2.227       1.115      3.7056E-03
   9    9.997       8.888       7.779       6.669       5.559       4.449       3.338       2.227       1.115      3.7056E-03
  10    9.997       8.888       7.779       6.669       5.559       4.449       3.338       2.227       1.115      3.7056E-03

 HEAD WILL BE SAVED ON UNIT   51 AT END OF TIME STEP   65, STRESS PERIOD    2

 DRAWDOWN WILL BE SAVED ON UNIT   52 AT END OF TIME STEP   65, STRESS PERIOD    2
1
  VOLUMETRIC BUDGET FOR ENTIRE MODEL AT END OF TIME STEP   65, STRESS PERIOD   2
  ------------------------------------------------------------------------------

     CUMULATIVE VOLUMES      L**3       RATES FOR THIS TIME STEP      L**3/T
     ------------------                 ------------------------

           IN:                                      IN:
           ---                                      ---
             STORAGE =       24987.3789               STORAGE =           1.3255
       CONSTANT HEAD =           0.0000         CONSTANT HEAD =           0.0000
               WELLS =           0.0000                 WELLS =           0.0000
       RIVER LEAKAGE =       28673.4570         RIVER LEAKAGE =         554.4116

            TOTAL IN =       53660.8359              TOTAL IN =         555.7371

          OUT:                                     OUT:
          ----                                     ----
             STORAGE =       4.3265E-03               STORAGE =       1.5259E-04
       CONSTANT HEAD =           0.0000         CONSTANT HEAD =           0.0000
               WELLS =           0.0000                 WELLS =           0.0000
       RIVER LEAKAGE =       53665.2148         RIVER LEAKAGE =         555.8414

           TOTAL OUT =       53665.2188             TOTAL OUT =         555.8416

            IN - OUT =          -4.3828              IN - OUT =          -0.1044

 PERCENT DISCREPANCY =          -0.01     PERCENT DISCREPANCY =          -0.02






         TIME SUMMARY AT END OF TIME STEP   65 IN STRESS PERIOD    2
                    SECONDS     MINUTES      HOURS       DAYS        YEARS
                    -----------------------------------------------------------
   TIME STEP LENGTH  86400.      1440.0      24.000      1.0000     2.73785E-03
 STRESS PERIOD TIME 5.61600E+06  93600.      1560.0      65.000     0.17796    
         TOTAL TIME 5.70240E+06  95040.      1584.0      66.000     0.18070    
1

 SOLVING FOR HEAD 

 OUTPUT CONTROL FOR STRESS PERIOD    2   TIME STEP   66
    SAVE HEAD FOR ALL LAYERS
    SAVE DRAWDOWN FOR ALL LAYERS
    SAVE BUDGET
    PRINT HEAD FOR ALL LAYERS
    PRINT BUDGET
 UBDSV1 SAVING "         STORAGE" ON UNIT  53 AT TIME STEP 66, STRESS PERIOD   2
 UBDSV2 SAVING "   CONSTANT HEAD" ON UNIT  53 AT TIME STEP 66, STRESS PERIOD   2
 UBDSV1 SAVING "FLOW RIGHT FACE " ON UNIT  53 AT TIME STEP 66, STRESS PERIOD   2
 UBDSV1 SAVING "FLOW FRONT FACE " ON UNIT  53 AT TIME STEP 66, STRESS PERIOD   2
 UBDSV1 SAVING "FLOW LOWER FACE " ON UNIT  53 AT TIME STEP 66, STRESS PERIOD   2
1
              HEAD IN LAYER   1 AT END OF TIME STEP  66 IN STRESS PERIOD    2
  ---------------------------------------------------------------------------

            1           2           3           4           5           6           7           8           9          10
 ........................................................................................................................
   1    9.997       8.888       7.778       6.669       5.559       4.449       3.338       2.227       1.115      3.7051E-03
   2    9.997       8.888       7.778       6.669       5.559       4.449       3.338       2.227       1.115      3.7051E-03
   3    9.997       8.888       7.778       6.669       5.559       4.449       3.338       2.227       1.115      3.7051E-03
   4    9.997       8.888       7.778       6.669       5.559       4.449       3.338       2.227       1.115      3.7051E-03
   5    9.997       8.888       7.778       6.669       5.559       4.449       3.338       2.227       1.115      3.7051E-03
   6    9.997       8.888       7.778       6.669       5.559       4.449       3.338       2.227       1.115      3.7051E-03
   7    9.997       8.888       7.778       6.669       5.559       4.449       3.338       2.227       1.115      3.7051E-03
   8    9.997       8.888       7.778       6.669       5.559       4.449       3.338       2.227       1.115      3.7051E-03
   9    9.997       8.888       7.778       6.669       5.559       4.449       3.338       2.227       1.115      3.7051E-03
  10    9.997       8.888       7.778       6.669       5.559       4.449       3.338       2.227       1.115      3.7051E-03
1
              HEAD IN LAYER   2 AT END OF TIME STEP  66 IN STRESS PERIOD    2
  ---------------------------------------------------------------------------

            1           2           3           4           5           6           7           8           9          10
 ........................................................................................................................
   1    9.997       8.888       7.778       6.669       5.559       4.449       3.338       2.227       1.115      3.7051E-03
   2    9.997       8.888       7.778       6.669       5.559       4.449       3.338       2.227       1.115      3.7051E-03
   3    9.997       8.888       7.778       6.669       5.559       4.449       3.338       2.227       1.115      3.7051E-03
   4    9.997       8.888       7.778       6.669       5.559       4.449       3.338       2.227       1.115      3.7051E-03
   5    9.997       8.888       7.778       6.669       5.559       4.449       3.338       2.227       1.115      3.7051E-03
   6    9.997       8.888       7.778       6.669       5.559       4.449       3.338       2.227       1.115      3.7051E-03
   7    9.997       8.888       7.778       6.669       5.559       4.449       3.338       2.227       1.115      3.7051E-03
   8    9.997       8.888       7.778       6.669       5.559       4.449       3.338       2.227       1.115      3.7051E-03
   9    9.997       8.888       7.778       6.669       5.559       4.449       3.338       2.227       1.115      3.7051E-03
  10    9.997       8.888       7.778       6.669       5.559       4.449       3.338       2.227       1.115      3.7051E-03
1
              HEAD IN LAYER   3 AT END OF TIME STEP  66 IN STRESS PERIOD    2
  ---------------------------------------------------------------------------

            1           2           3           4           5           6           7           8           9          10
 ........................................................................................................................
   1    9.997       8.888       7.778       6.669       5.559       4.449       3.338       2.227       1.115      3.7051E-03
   2    9.997       8.888       7.778       6.669       5.559       4.449       3.338       2.227       1.115      3.7051E-03
   3    9.997       8.888       7.778       6.669       5.559       4.449       3.338       2.227       1.115      3.7051E-03
   4    9.997       8.888       7.778       6.669       5.559       4.449       3.338       2.227       1.115      3.7051E-03
   5    9.997       8.888       7.778       6.669       5.559       4.449       3.338       2.227       1.115      3.7051E-03
   6    9.997       8.888       7.778       6.669       5.559       4.449       3.338       2.227       1.115      3.7051E-03
   7    9.997       8.888       7.778       6.669       5.559       4.449       3.338       2.227       1.115      3.7051E-03
   8    9.997       8.888       7.778       6.669       5.559       4.449       3.338       2.227       1.115      3.7051E-03
   9    9.997       8.888       7.778       6.669       5.559       4.449       3.338       2.227       1.115      3.7051E-03
  10    9.997       8.888       7.778       6.669       5.559       4.449       3.338       2.227       1.115      3.7051E-03

 HEAD WILL BE SAVED ON UNIT   51 AT END OF TIME STEP   66, STRESS PERIOD    2

 DRAWDOWN WILL BE SAVED ON UNIT   52 AT END OF TIME STEP   66, STRESS PERIOD    2
1
  VOLUMETRIC BUDGET FOR ENTIRE MODEL AT END OF TIME STEP   66, STRESS PERIOD   2
  ------------------------------------------------------------------------------

     CUMULATIVE VOLUMES      L**3       RATES FOR THIS TIME STEP      L**3/T
     ------------------                 ------------------------

           IN:                                      IN:
           ---                                      ---
             STORAGE =       24988.5625               STORAGE =           1.1829
       CONSTANT HEAD =           0.0000         CONSTANT HEAD =           0.0000
               WELLS =           0.0000                 WELLS =           0.0000
       RIVER LEAKAGE =       29227.9395         RIVER LEAKAGE =         554.4827

            TOTAL IN =       54216.5000              TOTAL IN =         555.6656

          OUT:                                     OUT:
          ----                                     ----
             STORAGE =       5.5451E-03               STORAGE =       1.2186E-03
       CONSTANT HEAD =           0.0000         CONSTANT HEAD =           0.0000
               WELLS =           0.0000                 WELLS =           0.0000
       RIVER LEAKAGE =       54220.9844         RIVER LEAKAGE =         555.7697

           TOTAL OUT =       54220.9883             TOTAL OUT =         555.7709

            IN - OUT =          -4.4883              IN - OUT =          -0.1052

 PERCENT DISCREPANCY =          -0.01     PERCENT DISCREPANCY =          -0.02






         TIME SUMMARY AT END OF TIME STEP   66 IN STRESS PERIOD    2
                    SECONDS     MINUTES      HOURS       DAYS        YEARS
                    -----------------------------------------------------------
   TIME STEP LENGTH  86400.      1440.0      24.000      1.0000     2.73785E-03
 STRESS PERIOD TIME 5.70240E+06  95040.      1584.0      66.000     0.18070    
         TOTAL TIME 5.78880E+06  96480.      1608.0      67.000     0.18344    
1

 SOLVING FOR HEAD 

 OUTPUT CONTROL FOR STRESS PERIOD    2   TIME STEP   67
    SAVE HEAD FOR ALL LAYERS
    SAVE DRAWDOWN FOR ALL LAYERS
    SAVE BUDGET
    PRINT HEAD FOR ALL LAYERS
    PRINT BUDGET
 UBDSV1 SAVING "         STORAGE" ON UNIT  53 AT TIME STEP 67, STRESS PERIOD   2
 UBDSV2 SAVING "   CONSTANT HEAD" ON UNIT  53 AT TIME STEP 67, STRESS PERIOD   2
 UBDSV1 SAVING "FLOW RIGHT FACE " ON UNIT  53 AT TIME STEP 67, STRESS PERIOD   2
 UBDSV1 SAVING "FLOW FRONT FACE " ON UNIT  53 AT TIME STEP 67, STRESS PERIOD   2
 UBDSV1 SAVING "FLOW LOWER FACE " ON UNIT  53 AT TIME STEP 67, STRESS PERIOD   2
1
              HEAD IN LAYER   1 AT END OF TIME STEP  67 IN STRESS PERIOD    2
  ---------------------------------------------------------------------------

            1           2           3           4           5           6           7           8           9          10
 ........................................................................................................................
   1    9.997       8.888       7.778       6.669       5.559       4.448       3.337       2.226       1.115      3.7047E-03
   2    9.997       8.888       7.778       6.669       5.559       4.448       3.337       2.226       1.115      3.7047E-03
   3    9.997       8.888       7.778       6.669       5.559       4.448       3.337       2.226       1.115      3.7047E-03
   4    9.997       8.888       7.778       6.669       5.559       4.448       3.337       2.226       1.115      3.7047E-03
   5    9.997       8.888       7.778       6.669       5.559       4.448       3.337       2.226       1.115      3.7047E-03
   6    9.997       8.888       7.778       6.669       5.559       4.448       3.337       2.226       1.115      3.7047E-03
   7    9.997       8.888       7.778       6.669       5.559       4.448       3.337       2.226       1.115      3.7047E-03
   8    9.997       8.888       7.778       6.669       5.559       4.448       3.337       2.226       1.115      3.7047E-03
   9    9.997       8.888       7.778       6.669       5.559       4.448       3.337       2.226       1.115      3.7047E-03
  10    9.997       8.888       7.778       6.669       5.559       4.448       3.337       2.226       1.115      3.7047E-03
1
              HEAD IN LAYER   2 AT END OF TIME STEP  67 IN STRESS PERIOD    2
  ---------------------------------------------------------------------------

            1           2           3           4           5           6           7           8           9          10
 ........................................................................................................................
   1    9.997       8.888       7.778       6.669       5.559       4.448       3.337       2.226       1.115      3.7047E-03
   2    9.997       8.888       7.778       6.669       5.559       4.448       3.337       2.226       1.115      3.7047E-03
   3    9.997       8.888       7.778       6.669       5.559       4.448       3.337       2.226       1.115      3.7047E-03
   4    9.997       8.888       7.778       6.669       5.559       4.448       3.337       2.226       1.115      3.7047E-03
   5    9.997       8.888       7.778       6.669       5.559       4.448       3.337       2.226       1.115      3.7047E-03
   6    9.997       8.888       7.778       6.669       5.559       4.448       3.337       2.226       1.115      3.7047E-03
   7    9.997       8.888       7.778       6.669       5.559       4.448       3.337       2.226       1.115      3.7047E-03
   8    9.997       8.888       7.778       6.669       5.559       4.448       3.337       2.226       1.115      3.7047E-03
   9    9.997       8.888       7.778       6.669       5.559       4.448       3.337       2.226       1.115      3.7047E-03
  10    9.997       8.888       7.778       6.669       5.559       4.448       3.337       2.226       1.115      3.7047E-03
1
              HEAD IN LAYER   3 AT END OF TIME STEP  67 IN STRESS PERIOD    2
  ---------------------------------------------------------------------------

            1           2           3           4           5           6           7           8           9          10
 ........................................................................................................................
   1    9.997       8.888       7.778       6.669       5.559       4.448       3.337       2.226       1.115      3.7047E-03
   2    9.997       8.888       7.778       6.669       5.559       4.448       3.337       2.226       1.115      3.7047E-03
   3    9.997       8.888       7.778       6.669       5.559       4.448       3.337       2.226       1.115      3.7047E-03
   4    9.997       8.888       7.778       6.669       5.559       4.448       3.337       2.226       1.115      3.7047E-03
   5    9.997       8.888       7.778       6.669       5.559       4.448       3.337       2.226       1.115      3.7047E-03
   6    9.997       8.888       7.778       6.669       5.559       4.448       3.337       2.226       1.115      3.7047E-03
   7    9.997       8.888       7.778       6.669       5.559       4.448       3.337       2.226       1.115      3.7047E-03
   8    9.997       8.888       7.778       6.669       5.559       4.448       3.337       2.226       1.115      3.7047E-03
   9    9.997       8.888       7.778       6.669       5.559       4.448       3.337       2.226       1.115      3.7047E-03
  10    9.997       8.888       7.778       6.669       5.559       4.448       3.337       2.226       1.115      3.7047E-03

 HEAD WILL BE SAVED ON UNIT   51 AT END OF TIME STEP   67, STRESS PERIOD    2

 DRAWDOWN WILL BE SAVED ON UNIT   52 AT END OF TIME STEP   67, STRESS PERIOD    2
1
  VOLUMETRIC BUDGET FOR ENTIRE MODEL AT END OF TIME STEP   67, STRESS PERIOD   2
  ------------------------------------------------------------------------------

     CUMULATIVE VOLUMES      L**3       RATES FOR THIS TIME STEP      L**3/T
     ------------------                 ------------------------

           IN:                                      IN:
           ---                                      ---
             STORAGE =       24989.6172               STORAGE =           1.0554
       CONSTANT HEAD =           0.0000         CONSTANT HEAD =           0.0000
               WELLS =           0.0000                 WELLS =           0.0000
       RIVER LEAKAGE =       29782.4863         RIVER LEAKAGE =         554.5461

            TOTAL IN =       54772.1016              TOTAL IN =         555.6016

          OUT:                                     OUT:
          ----                                     ----
             STORAGE =       6.6932E-03               STORAGE =       1.1481E-03
       CONSTANT HEAD =           0.0000         CONSTANT HEAD =           0.0000
               WELLS =           0.0000                 WELLS =           0.0000
       RIVER LEAKAGE =       54776.6914         RIVER LEAKAGE =         555.7062

           TOTAL OUT =       54776.6992             TOTAL OUT =         555.7073

            IN - OUT =          -4.5977              IN - OUT =          -0.1058

 PERCENT DISCREPANCY =          -0.01     PERCENT DISCREPANCY =          -0.02






         TIME SUMMARY AT END OF TIME STEP   67 IN STRESS PERIOD    2
                    SECONDS     MINUTES      HOURS       DAYS        YEARS
                    -----------------------------------------------------------
   TIME STEP LENGTH  86400.      1440.0      24.000      1.0000     2.73785E-03
 STRESS PERIOD TIME 5.78880E+06  96480.      1608.0      67.000     0.18344    
         TOTAL TIME 5.87520E+06  97920.      1632.0      68.000     0.18617    
1

 SOLVING FOR HEAD 

 OUTPUT CONTROL FOR STRESS PERIOD    2   TIME STEP   68
    SAVE HEAD FOR ALL LAYERS
    SAVE DRAWDOWN FOR ALL LAYERS
    SAVE BUDGET
    PRINT HEAD FOR ALL LAYERS
    PRINT BUDGET
 UBDSV1 SAVING "         STORAGE" ON UNIT  53 AT TIME STEP 68, STRESS PERIOD   2
 UBDSV2 SAVING "   CONSTANT HEAD" ON UNIT  53 AT TIME STEP 68, STRESS PERIOD   2
 UBDSV1 SAVING "FLOW RIGHT FACE " ON UNIT  53 AT TIME STEP 68, STRESS PERIOD   2
 UBDSV1 SAVING "FLOW FRONT FACE " ON UNIT  53 AT TIME STEP 68, STRESS PERIOD   2
 UBDSV1 SAVING "FLOW LOWER FACE " ON UNIT  53 AT TIME STEP 68, STRESS PERIOD   2
1
              HEAD IN LAYER   1 AT END OF TIME STEP  68 IN STRESS PERIOD    2
  ---------------------------------------------------------------------------

            1           2           3           4           5           6           7           8           9          10
 ........................................................................................................................
   1    9.997       8.888       7.778       6.668       5.558       4.448       3.337       2.226       1.115      3.7043E-03
   2    9.997       8.888       7.778       6.668       5.558       4.448       3.337       2.226       1.115      3.7043E-03
   3    9.997       8.888       7.778       6.668       5.558       4.448       3.337       2.226       1.115      3.7043E-03
   4    9.997       8.888       7.778       6.668       5.558       4.448       3.337       2.226       1.115      3.7043E-03
   5    9.997       8.888       7.778       6.668       5.558       4.448       3.337       2.226       1.115      3.7043E-03
   6    9.997       8.888       7.778       6.668       5.558       4.448       3.337       2.226       1.115      3.7043E-03
   7    9.997       8.888       7.778       6.668       5.558       4.448       3.337       2.226       1.115      3.7043E-03
   8    9.997       8.888       7.778       6.668       5.558       4.448       3.337       2.226       1.115      3.7043E-03
   9    9.997       8.888       7.778       6.668       5.558       4.448       3.337       2.226       1.115      3.7043E-03
  10    9.997       8.888       7.778       6.668       5.558       4.448       3.337       2.226       1.115      3.7043E-03
1
              HEAD IN LAYER   2 AT END OF TIME STEP  68 IN STRESS PERIOD    2
  ---------------------------------------------------------------------------

            1           2           3           4           5           6           7           8           9          10
 ........................................................................................................................
   1    9.997       8.888       7.778       6.668       5.558       4.448       3.337       2.226       1.115      3.7043E-03
   2    9.997       8.888       7.778       6.668       5.558       4.448       3.337       2.226       1.115      3.7043E-03
   3    9.997       8.888       7.778       6.668       5.558       4.448       3.337       2.226       1.115      3.7043E-03
   4    9.997       8.888       7.778       6.668       5.558       4.448       3.337       2.226       1.115      3.7043E-03
   5    9.997       8.888       7.778       6.668       5.558       4.448       3.337       2.226       1.115      3.7043E-03
   6    9.997       8.888       7.778       6.668       5.558       4.448       3.337       2.226       1.115      3.7043E-03
   7    9.997       8.888       7.778       6.668       5.558       4.448       3.337       2.226       1.115      3.7043E-03
   8    9.997       8.888       7.778       6.668       5.558       4.448       3.337       2.226       1.115      3.7043E-03
   9    9.997       8.888       7.778       6.668       5.558       4.448       3.337       2.226       1.115      3.7043E-03
  10    9.997       8.888       7.778       6.668       5.558       4.448       3.337       2.226       1.115      3.7043E-03
1
              HEAD IN LAYER   3 AT END OF TIME STEP  68 IN STRESS PERIOD    2
  ---------------------------------------------------------------------------

            1           2           3           4           5           6           7           8           9          10
 ........................................................................................................................
   1    9.997       8.888       7.778       6.668       5.558       4.448       3.337       2.226       1.115      3.7043E-03
   2    9.997       8.888       7.778       6.668       5.558       4.448       3.337       2.226       1.115      3.7043E-03
   3    9.997       8.888       7.778       6.668       5.558       4.448       3.337       2.226       1.115      3.7043E-03
   4    9.997       8.888       7.778       6.668       5.558       4.448       3.337       2.226       1.115      3.7043E-03
   5    9.997       8.888       7.778       6.668       5.558       4.448       3.337       2.226       1.115      3.7043E-03
   6    9.997       8.888       7.778       6.668       5.558       4.448       3.337       2.226       1.115      3.7043E-03
   7    9.997       8.888       7.778       6.668       5.558       4.448       3.337       2.226       1.115      3.7043E-03
   8    9.997       8.888       7.778       6.668       5.558       4.448       3.337       2.226       1.115      3.7043E-03
   9    9.997       8.888       7.778       6.668       5.558       4.448       3.337       2.226       1.115      3.7043E-03
  10    9.997       8.888       7.778       6.668       5.558       4.448       3.337       2.226       1.115      3.7043E-03

 HEAD WILL BE SAVED ON UNIT   51 AT END OF TIME STEP   68, STRESS PERIOD    2

 DRAWDOWN WILL BE SAVED ON UNIT   52 AT END OF TIME STEP   68, STRESS PERIOD    2
1
  VOLUMETRIC BUDGET FOR ENTIRE MODEL AT END OF TIME STEP   68, STRESS PERIOD   2
  ------------------------------------------------------------------------------

     CUMULATIVE VOLUMES      L**3       RATES FOR THIS TIME STEP      L**3/T
     ------------------                 ------------------------

           IN:                                      IN:
           ---                                      ---
             STORAGE =       24990.5586               STORAGE =           0.9423
       CONSTANT HEAD =           0.0000         CONSTANT HEAD =           0.0000
               WELLS =           0.0000                 WELLS =           0.0000
       RIVER LEAKAGE =       30337.0898         RIVER LEAKAGE =         554.6026

            TOTAL IN =       55327.6484              TOTAL IN =         555.5449

          OUT:                                     OUT:
          ----                                     ----
             STORAGE =       7.6430E-03               STORAGE =       9.4974E-04
       CONSTANT HEAD =           0.0000         CONSTANT HEAD =           0.0000
               WELLS =           0.0000                 WELLS =           0.0000
       RIVER LEAKAGE =       55332.3398         RIVER LEAKAGE =         555.6492

           TOTAL OUT =       55332.3477             TOTAL OUT =         555.6502

            IN - OUT =          -4.6992              IN - OUT =          -0.1053

 PERCENT DISCREPANCY =          -0.01     PERCENT DISCREPANCY =          -0.02






         TIME SUMMARY AT END OF TIME STEP   68 IN STRESS PERIOD    2
                    SECONDS     MINUTES      HOURS       DAYS        YEARS
                    -----------------------------------------------------------
   TIME STEP LENGTH  86400.      1440.0      24.000      1.0000     2.73785E-03
 STRESS PERIOD TIME 5.87520E+06  97920.      1632.0      68.000     0.18617    
         TOTAL TIME 5.96160E+06  99360.      1656.0      69.000     0.18891    
1

 SOLVING FOR HEAD 

 OUTPUT CONTROL FOR STRESS PERIOD    2   TIME STEP   69
    SAVE HEAD FOR ALL LAYERS
    SAVE DRAWDOWN FOR ALL LAYERS
    SAVE BUDGET
    PRINT HEAD FOR ALL LAYERS
    PRINT BUDGET
 UBDSV1 SAVING "         STORAGE" ON UNIT  53 AT TIME STEP 69, STRESS PERIOD   2
 UBDSV2 SAVING "   CONSTANT HEAD" ON UNIT  53 AT TIME STEP 69, STRESS PERIOD   2
 UBDSV1 SAVING "FLOW RIGHT FACE " ON UNIT  53 AT TIME STEP 69, STRESS PERIOD   2
 UBDSV1 SAVING "FLOW FRONT FACE " ON UNIT  53 AT TIME STEP 69, STRESS PERIOD   2
 UBDSV1 SAVING "FLOW LOWER FACE " ON UNIT  53 AT TIME STEP 69, STRESS PERIOD   2
1
              HEAD IN LAYER   1 AT END OF TIME STEP  69 IN STRESS PERIOD    2
  ---------------------------------------------------------------------------

            1           2           3           4           5           6           7           8           9          10
 ........................................................................................................................
   1    9.997       8.887       7.778       6.668       5.558       4.448       3.337       2.226       1.115      3.7040E-03
   2    9.997       8.887       7.778       6.668       5.558       4.448       3.337       2.226       1.115      3.7040E-03
   3    9.997       8.887       7.778       6.668       5.558       4.448       3.337       2.226       1.115      3.7040E-03
   4    9.997       8.887       7.778       6.668       5.558       4.448       3.337       2.226       1.115      3.7040E-03
   5    9.997       8.887       7.778       6.668       5.558       4.448       3.337       2.226       1.115      3.7040E-03
   6    9.997       8.887       7.778       6.668       5.558       4.448       3.337       2.226       1.115      3.7040E-03
   7    9.997       8.887       7.778       6.668       5.558       4.448       3.337       2.226       1.115      3.7040E-03
   8    9.997       8.887       7.778       6.668       5.558       4.448       3.337       2.226       1.115      3.7040E-03
   9    9.997       8.887       7.778       6.668       5.558       4.448       3.337       2.226       1.115      3.7040E-03
  10    9.997       8.887       7.778       6.668       5.558       4.448       3.337       2.226       1.115      3.7040E-03
1
              HEAD IN LAYER   2 AT END OF TIME STEP  69 IN STRESS PERIOD    2
  ---------------------------------------------------------------------------

            1           2           3           4           5           6           7           8           9          10
 ........................................................................................................................
   1    9.997       8.887       7.778       6.668       5.558       4.448       3.337       2.226       1.115      3.7040E-03
   2    9.997       8.887       7.778       6.668       5.558       4.448       3.337       2.226       1.115      3.7040E-03
   3    9.997       8.887       7.778       6.668       5.558       4.448       3.337       2.226       1.115      3.7040E-03
   4    9.997       8.887       7.778       6.668       5.558       4.448       3.337       2.226       1.115      3.7040E-03
   5    9.997       8.887       7.778       6.668       5.558       4.448       3.337       2.226       1.115      3.7040E-03
   6    9.997       8.887       7.778       6.668       5.558       4.448       3.337       2.226       1.115      3.7040E-03
   7    9.997       8.887       7.778       6.668       5.558       4.448       3.337       2.226       1.115      3.7040E-03
   8    9.997       8.887       7.778       6.668       5.558       4.448       3.337       2.226       1.115      3.7040E-03
   9    9.997       8.887       7.778       6.668       5.558       4.448       3.337       2.226       1.115      3.7040E-03
  10    9.997       8.887       7.778       6.668       5.558       4.448       3.337       2.226       1.115      3.7040E-03
1
              HEAD IN LAYER   3 AT END OF TIME STEP  69 IN STRESS PERIOD    2
  ---------------------------------------------------------------------------

            1           2           3           4           5           6           7           8           9          10
 ........................................................................................................................
   1    9.997       8.887       7.778       6.668       5.558       4.448       3.337       2.226       1.115      3.7040E-03
   2    9.997       8.887       7.778       6.668       5.558       4.448       3.337       2.226       1.115      3.7040E-03
   3    9.997       8.887       7.778       6.668       5.558       4.448       3.337       2.226       1.115      3.7040E-03
   4    9.997       8.887       7.778       6.668       5.558       4.448       3.337       2.226       1.115      3.7040E-03
   5    9.997       8.887       7.778       6.668       5.558       4.448       3.337       2.226       1.115      3.7040E-03
   6    9.997       8.887       7.778       6.668       5.558       4.448       3.337       2.226       1.115      3.7040E-03
   7    9.997       8.887       7.778       6.668       5.558       4.448       3.337       2.226       1.115      3.7040E-03
   8    9.997       8.887       7.778       6.668       5.558       4.448       3.337       2.226       1.115      3.7040E-03
   9    9.997       8.887       7.778       6.668       5.558       4.448       3.337       2.226       1.115      3.7040E-03
  10    9.997       8.887       7.778       6.668       5.558       4.448       3.337       2.226       1.115      3.7040E-03

 HEAD WILL BE SAVED ON UNIT   51 AT END OF TIME STEP   69, STRESS PERIOD    2

 DRAWDOWN WILL BE SAVED ON UNIT   52 AT END OF TIME STEP   69, STRESS PERIOD    2
1
  VOLUMETRIC BUDGET FOR ENTIRE MODEL AT END OF TIME STEP   69, STRESS PERIOD   2
  ------------------------------------------------------------------------------

     CUMULATIVE VOLUMES      L**3       RATES FOR THIS TIME STEP      L**3/T
     ------------------                 ------------------------

           IN:                                      IN:
           ---                                      ---
             STORAGE =       24991.4004               STORAGE =           0.8413
       CONSTANT HEAD =           0.0000         CONSTANT HEAD =           0.0000
               WELLS =           0.0000                 WELLS =           0.0000
       RIVER LEAKAGE =       30891.7422         RIVER LEAKAGE =         554.6532

            TOTAL IN =       55883.1406              TOTAL IN =         555.4944

          OUT:                                     OUT:
          ----                                     ----
             STORAGE =       8.5193E-03               STORAGE =       8.7637E-04
       CONSTANT HEAD =           0.0000         CONSTANT HEAD =           0.0000
               WELLS =           0.0000                 WELLS =           0.0000
       RIVER LEAKAGE =       55887.9375         RIVER LEAKAGE =         555.5986

           TOTAL OUT =       55887.9453             TOTAL OUT =         555.5995

            IN - OUT =          -4.8047              IN - OUT =          -0.1050

 PERCENT DISCREPANCY =          -0.01     PERCENT DISCREPANCY =          -0.02






         TIME SUMMARY AT END OF TIME STEP   69 IN STRESS PERIOD    2
                    SECONDS     MINUTES      HOURS       DAYS        YEARS
                    -----------------------------------------------------------
   TIME STEP LENGTH  86400.      1440.0      24.000      1.0000     2.73785E-03
 STRESS PERIOD TIME 5.96160E+06  99360.      1656.0      69.000     0.18891    
         TOTAL TIME 6.04800E+06 1.00800E+05  1680.0      70.000     0.19165    
1

 SOLVING FOR HEAD 

 OUTPUT CONTROL FOR STRESS PERIOD    2   TIME STEP   70
    SAVE HEAD FOR ALL LAYERS
    SAVE DRAWDOWN FOR ALL LAYERS
    SAVE BUDGET
    PRINT HEAD FOR ALL LAYERS
    PRINT BUDGET
 UBDSV1 SAVING "         STORAGE" ON UNIT  53 AT TIME STEP 70, STRESS PERIOD   2
 UBDSV2 SAVING "   CONSTANT HEAD" ON UNIT  53 AT TIME STEP 70, STRESS PERIOD   2
 UBDSV1 SAVING "FLOW RIGHT FACE " ON UNIT  53 AT TIME STEP 70, STRESS PERIOD   2
 UBDSV1 SAVING "FLOW FRONT FACE " ON UNIT  53 AT TIME STEP 70, STRESS PERIOD   2
 UBDSV1 SAVING "FLOW LOWER FACE " ON UNIT  53 AT TIME STEP 70, STRESS PERIOD   2
1
              HEAD IN LAYER   1 AT END OF TIME STEP  70 IN STRESS PERIOD    2
  ---------------------------------------------------------------------------

            1           2           3           4           5           6           7           8           9          10
 ........................................................................................................................
   1    9.997       8.887       7.778       6.668       5.558       4.447       3.337       2.226       1.115      3.7037E-03
   2    9.997       8.887       7.778       6.668       5.558       4.447       3.337       2.226       1.115      3.7037E-03
   3    9.997       8.887       7.778       6.668       5.558       4.447       3.337       2.226       1.115      3.7037E-03
   4    9.997       8.887       7.778       6.668       5.558       4.447       3.337       2.226       1.115      3.7037E-03
   5    9.997       8.887       7.778       6.668       5.558       4.447       3.337       2.226       1.115      3.7037E-03
   6    9.997       8.887       7.778       6.668       5.558       4.447       3.337       2.226       1.115      3.7037E-03
   7    9.997       8.887       7.778       6.668       5.558       4.447       3.337       2.226       1.115      3.7037E-03
   8    9.997       8.887       7.778       6.668       5.558       4.447       3.337       2.226       1.115      3.7037E-03
   9    9.997       8.887       7.778       6.668       5.558       4.447       3.337       2.226       1.115      3.7037E-03
  10    9.997       8.887       7.778       6.668       5.558       4.447       3.337       2.226       1.115      3.7037E-03
1
              HEAD IN LAYER   2 AT END OF TIME STEP  70 IN STRESS PERIOD    2
  ---------------------------------------------------------------------------

            1           2           3           4           5           6           7           8           9          10
 ........................................................................................................................
   1    9.997       8.887       7.778       6.668       5.558       4.447       3.337       2.226       1.115      3.7037E-03
   2    9.997       8.887       7.778       6.668       5.558       4.447       3.337       2.226       1.115      3.7037E-03
   3    9.997       8.887       7.778       6.668       5.558       4.447       3.337       2.226       1.115      3.7037E-03
   4    9.997       8.887       7.778       6.668       5.558       4.447       3.337       2.226       1.115      3.7037E-03
   5    9.997       8.887       7.778       6.668       5.558       4.447       3.337       2.226       1.115      3.7037E-03
   6    9.997       8.887       7.778       6.668       5.558       4.447       3.337       2.226       1.115      3.7037E-03
   7    9.997       8.887       7.778       6.668       5.558       4.447       3.337       2.226       1.115      3.7037E-03
   8    9.997       8.887       7.778       6.668       5.558       4.447       3.337       2.226       1.115      3.7037E-03
   9    9.997       8.887       7.778       6.668       5.558       4.447       3.337       2.226       1.115      3.7037E-03
  10    9.997       8.887       7.778       6.668       5.558       4.447       3.337       2.226       1.115      3.7037E-03
1
              HEAD IN LAYER   3 AT END OF TIME STEP  70 IN STRESS PERIOD    2
  ---------------------------------------------------------------------------

            1           2           3           4           5           6           7           8           9          10
 ........................................................................................................................
   1    9.997       8.887       7.778       6.668       5.558       4.447       3.337       2.226       1.115      3.7037E-03
   2    9.997       8.887       7.778       6.668       5.558       4.447       3.337       2.226       1.115      3.7037E-03
   3    9.997       8.887       7.778       6.668       5.558       4.447       3.337       2.226       1.115      3.7037E-03
   4    9.997       8.887       7.778       6.668       5.558       4.447       3.337       2.226       1.115      3.7037E-03
   5    9.997       8.887       7.778       6.668       5.558       4.447       3.337       2.226       1.115      3.7037E-03
   6    9.997       8.887       7.778       6.668       5.558       4.447       3.337       2.226       1.115      3.7037E-03
   7    9.997       8.887       7.778       6.668       5.558       4.447       3.337       2.226       1.115      3.7037E-03
   8    9.997       8.887       7.778       6.668       5.558       4.447       3.337       2.226       1.115      3.7037E-03
   9    9.997       8.887       7.778       6.668       5.558       4.447       3.337       2.226       1.115      3.7037E-03
  10    9.997       8.887       7.778       6.668       5.558       4.447       3.337       2.226       1.115      3.7037E-03

 HEAD WILL BE SAVED ON UNIT   51 AT END OF TIME STEP   70, STRESS PERIOD    2

 DRAWDOWN WILL BE SAVED ON UNIT   52 AT END OF TIME STEP   70, STRESS PERIOD    2
1
  VOLUMETRIC BUDGET FOR ENTIRE MODEL AT END OF TIME STEP   70, STRESS PERIOD   2
  ------------------------------------------------------------------------------

     CUMULATIVE VOLUMES      L**3       RATES FOR THIS TIME STEP      L**3/T
     ------------------                 ------------------------

           IN:                                      IN:
           ---                                      ---
             STORAGE =       24992.1504               STORAGE =           0.7503
       CONSTANT HEAD =           0.0000         CONSTANT HEAD =           0.0000
               WELLS =           0.0000                 WELLS =           0.0000
       RIVER LEAKAGE =       31446.4414         RIVER LEAKAGE =         554.6985

            TOTAL IN =       56438.5938              TOTAL IN =         555.4489

          OUT:                                     OUT:
          ----                                     ----
             STORAGE =       9.3458E-03               STORAGE =       8.2646E-04
       CONSTANT HEAD =           0.0000         CONSTANT HEAD =           0.0000
               WELLS =           0.0000                 WELLS =           0.0000
       RIVER LEAKAGE =       56443.4922         RIVER LEAKAGE =         555.5536

           TOTAL OUT =       56443.5000             TOTAL OUT =         555.5544

            IN - OUT =          -4.9062              IN - OUT =          -0.1056

 PERCENT DISCREPANCY =          -0.01     PERCENT DISCREPANCY =          -0.02






         TIME SUMMARY AT END OF TIME STEP   70 IN STRESS PERIOD    2
                    SECONDS     MINUTES      HOURS       DAYS        YEARS
                    -----------------------------------------------------------
   TIME STEP LENGTH  86400.      1440.0      24.000      1.0000     2.73785E-03
 STRESS PERIOD TIME 6.04800E+06 1.00800E+05  1680.0      70.000     0.19165    
         TOTAL TIME 6.13440E+06 1.02240E+05  1704.0      71.000     0.19439    
1

 SOLVING FOR HEAD 

 OUTPUT CONTROL FOR STRESS PERIOD    2   TIME STEP   71
    SAVE HEAD FOR ALL LAYERS
    SAVE DRAWDOWN FOR ALL LAYERS
    SAVE BUDGET
    PRINT HEAD FOR ALL LAYERS
    PRINT BUDGET
 UBDSV1 SAVING "         STORAGE" ON UNIT  53 AT TIME STEP 71, STRESS PERIOD   2
 UBDSV2 SAVING "   CONSTANT HEAD" ON UNIT  53 AT TIME STEP 71, STRESS PERIOD   2
 UBDSV1 SAVING "FLOW RIGHT FACE " ON UNIT  53 AT TIME STEP 71, STRESS PERIOD   2
 UBDSV1 SAVING "FLOW FRONT FACE " ON UNIT  53 AT TIME STEP 71, STRESS PERIOD   2
 UBDSV1 SAVING "FLOW LOWER FACE " ON UNIT  53 AT TIME STEP 71, STRESS PERIOD   2
1
              HEAD IN LAYER   1 AT END OF TIME STEP  71 IN STRESS PERIOD    2
  ---------------------------------------------------------------------------

            1           2           3           4           5           6           7           8           9          10
 ........................................................................................................................
   1    9.997       8.887       7.777       6.668       5.557       4.447       3.336       2.226       1.115      3.7034E-03
   2    9.997       8.887       7.777       6.668       5.557       4.447       3.336       2.226       1.115      3.7034E-03
   3    9.997       8.887       7.777       6.668       5.557       4.447       3.336       2.226       1.115      3.7034E-03
   4    9.997       8.887       7.777       6.668       5.557       4.447       3.336       2.226       1.115      3.7034E-03
   5    9.997       8.887       7.777       6.668       5.557       4.447       3.336       2.226       1.115      3.7034E-03
   6    9.997       8.887       7.777       6.668       5.557       4.447       3.336       2.226       1.115      3.7034E-03
   7    9.997       8.887       7.777       6.668       5.557       4.447       3.336       2.226       1.115      3.7034E-03
   8    9.997       8.887       7.777       6.668       5.557       4.447       3.336       2.226       1.115      3.7034E-03
   9    9.997       8.887       7.777       6.668       5.557       4.447       3.336       2.226       1.115      3.7034E-03
  10    9.997       8.887       7.777       6.668       5.557       4.447       3.336       2.226       1.115      3.7034E-03
1
              HEAD IN LAYER   2 AT END OF TIME STEP  71 IN STRESS PERIOD    2
  ---------------------------------------------------------------------------

            1           2           3           4           5           6           7           8           9          10
 ........................................................................................................................
   1    9.997       8.887       7.777       6.668       5.557       4.447       3.336       2.226       1.115      3.7034E-03
   2    9.997       8.887       7.777       6.668       5.557       4.447       3.336       2.226       1.115      3.7034E-03
   3    9.997       8.887       7.777       6.668       5.557       4.447       3.336       2.226       1.115      3.7034E-03
   4    9.997       8.887       7.777       6.668       5.557       4.447       3.336       2.226       1.115      3.7034E-03
   5    9.997       8.887       7.777       6.668       5.557       4.447       3.336       2.226       1.115      3.7034E-03
   6    9.997       8.887       7.777       6.668       5.557       4.447       3.336       2.226       1.115      3.7034E-03
   7    9.997       8.887       7.777       6.668       5.557       4.447       3.336       2.226       1.115      3.7034E-03
   8    9.997       8.887       7.777       6.668       5.557       4.447       3.336       2.226       1.115      3.7034E-03
   9    9.997       8.887       7.777       6.668       5.557       4.447       3.336       2.226       1.115      3.7034E-03
  10    9.997       8.887       7.777       6.668       5.557       4.447       3.336       2.226       1.115      3.7034E-03
1
              HEAD IN LAYER   3 AT END OF TIME STEP  71 IN STRESS PERIOD    2
  ---------------------------------------------------------------------------

            1           2           3           4           5           6           7           8           9          10
 ........................................................................................................................
   1    9.997       8.887       7.777       6.668       5.557       4.447       3.336       2.226       1.115      3.7034E-03
   2    9.997       8.887       7.777       6.668       5.557       4.447       3.336       2.226       1.115      3.7034E-03
   3    9.997       8.887       7.777       6.668       5.557       4.447       3.336       2.226       1.115      3.7034E-03
   4    9.997       8.887       7.777       6.668       5.557       4.447       3.336       2.226       1.115      3.7034E-03
   5    9.997       8.887       7.777       6.668       5.557       4.447       3.336       2.226       1.115      3.7034E-03
   6    9.997       8.887       7.777       6.668       5.557       4.447       3.336       2.226       1.115      3.7034E-03
   7    9.997       8.887       7.777       6.668       5.557       4.447       3.336       2.226       1.115      3.7034E-03
   8    9.997       8.887       7.777       6.668       5.557       4.447       3.336       2.226       1.115      3.7034E-03
   9    9.997       8.887       7.777       6.668       5.557       4.447       3.336       2.226       1.115      3.7034E-03
  10    9.997       8.887       7.777       6.668       5.557       4.447       3.336       2.226       1.115      3.7034E-03

 HEAD WILL BE SAVED ON UNIT   51 AT END OF TIME STEP   71, STRESS PERIOD    2

 DRAWDOWN WILL BE SAVED ON UNIT   52 AT END OF TIME STEP   71, STRESS PERIOD    2
1
  VOLUMETRIC BUDGET FOR ENTIRE MODEL AT END OF TIME STEP   71, STRESS PERIOD   2
  ------------------------------------------------------------------------------

     CUMULATIVE VOLUMES      L**3       RATES FOR THIS TIME STEP      L**3/T
     ------------------                 ------------------------

           IN:                                      IN:
           ---                                      ---
             STORAGE =       24992.8203               STORAGE =           0.6699
       CONSTANT HEAD =           0.0000         CONSTANT HEAD =           0.0000
               WELLS =           0.0000                 WELLS =           0.0000
       RIVER LEAKAGE =       32001.1797         RIVER LEAKAGE =         554.7387

            TOTAL IN =       56994.0000              TOTAL IN =         555.4086

          OUT:                                     OUT:
          ----                                     ----
             STORAGE =       9.9749E-03               STORAGE =       6.2909E-04
       CONSTANT HEAD =           0.0000         CONSTANT HEAD =           0.0000
               WELLS =           0.0000                 WELLS =           0.0000
       RIVER LEAKAGE =       56999.0039         RIVER LEAKAGE =         555.5132

           TOTAL OUT =       56999.0156             TOTAL OUT =         555.5139

            IN - OUT =          -5.0156              IN - OUT =          -0.1052

 PERCENT DISCREPANCY =          -0.01     PERCENT DISCREPANCY =          -0.02






         TIME SUMMARY AT END OF TIME STEP   71 IN STRESS PERIOD    2
                    SECONDS     MINUTES      HOURS       DAYS        YEARS
                    -----------------------------------------------------------
   TIME STEP LENGTH  86400.      1440.0      24.000      1.0000     2.73785E-03
 STRESS PERIOD TIME 6.13440E+06 1.02240E+05  1704.0      71.000     0.19439    
         TOTAL TIME 6.22080E+06 1.03680E+05  1728.0      72.000     0.19713    
1

 SOLVING FOR HEAD 

 OUTPUT CONTROL FOR STRESS PERIOD    2   TIME STEP   72
    SAVE HEAD FOR ALL LAYERS
    SAVE DRAWDOWN FOR ALL LAYERS
    SAVE BUDGET
    PRINT HEAD FOR ALL LAYERS
    PRINT BUDGET
 UBDSV1 SAVING "         STORAGE" ON UNIT  53 AT TIME STEP 72, STRESS PERIOD   2
 UBDSV2 SAVING "   CONSTANT HEAD" ON UNIT  53 AT TIME STEP 72, STRESS PERIOD   2
 UBDSV1 SAVING "FLOW RIGHT FACE " ON UNIT  53 AT TIME STEP 72, STRESS PERIOD   2
 UBDSV1 SAVING "FLOW FRONT FACE " ON UNIT  53 AT TIME STEP 72, STRESS PERIOD   2
 UBDSV1 SAVING "FLOW LOWER FACE " ON UNIT  53 AT TIME STEP 72, STRESS PERIOD   2
1
              HEAD IN LAYER   1 AT END OF TIME STEP  72 IN STRESS PERIOD    2
  ---------------------------------------------------------------------------

            1           2           3           4           5           6           7           8           9          10
 ........................................................................................................................
   1    9.997       8.887       7.777       6.667       5.557       4.447       3.336       2.226       1.115      3.7032E-03
   2    9.997       8.887       7.777       6.667       5.557       4.447       3.336       2.226       1.115      3.7032E-03
   3    9.997       8.887       7.777       6.667       5.557       4.447       3.336       2.226       1.115      3.7032E-03
   4    9.997       8.887       7.777       6.667       5.557       4.447       3.336       2.226       1.115      3.7032E-03
   5    9.997       8.887       7.777       6.667       5.557       4.447       3.336       2.226       1.115      3.7032E-03
   6    9.997       8.887       7.777       6.667       5.557       4.447       3.336       2.226       1.115      3.7032E-03
   7    9.997       8.887       7.777       6.667       5.557       4.447       3.336       2.226       1.115      3.7032E-03
   8    9.997       8.887       7.777       6.667       5.557       4.447       3.336       2.226       1.115      3.7032E-03
   9    9.997       8.887       7.777       6.667       5.557       4.447       3.336       2.226       1.115      3.7032E-03
  10    9.997       8.887       7.777       6.667       5.557       4.447       3.336       2.226       1.115      3.7032E-03
1
              HEAD IN LAYER   2 AT END OF TIME STEP  72 IN STRESS PERIOD    2
  ---------------------------------------------------------------------------

            1           2           3           4           5           6           7           8           9          10
 ........................................................................................................................
   1    9.997       8.887       7.777       6.667       5.557       4.447       3.336       2.226       1.115      3.7032E-03
   2    9.997       8.887       7.777       6.667       5.557       4.447       3.336       2.226       1.115      3.7032E-03
   3    9.997       8.887       7.777       6.667       5.557       4.447       3.336       2.226       1.115      3.7032E-03
   4    9.997       8.887       7.777       6.667       5.557       4.447       3.336       2.226       1.115      3.7032E-03
   5    9.997       8.887       7.777       6.667       5.557       4.447       3.336       2.226       1.115      3.7032E-03
   6    9.997       8.887       7.777       6.667       5.557       4.447       3.336       2.226       1.115      3.7032E-03
   7    9.997       8.887       7.777       6.667       5.557       4.447       3.336       2.226       1.115      3.7032E-03
   8    9.997       8.887       7.777       6.667       5.557       4.447       3.336       2.226       1.115      3.7032E-03
   9    9.997       8.887       7.777       6.667       5.557       4.447       3.336       2.226       1.115      3.7032E-03
  10    9.997       8.887       7.777       6.667       5.557       4.447       3.336       2.226       1.115      3.7032E-03
1
              HEAD IN LAYER   3 AT END OF TIME STEP  72 IN STRESS PERIOD    2
  ---------------------------------------------------------------------------

            1           2           3           4           5           6           7           8           9          10
 ........................................................................................................................
   1    9.997       8.887       7.777       6.667       5.557       4.447       3.336       2.226       1.115      3.7032E-03
   2    9.997       8.887       7.777       6.667       5.557       4.447       3.336       2.226       1.115      3.7032E-03
   3    9.997       8.887       7.777       6.667       5.557       4.447       3.336       2.226       1.115      3.7032E-03
   4    9.997       8.887       7.777       6.667       5.557       4.447       3.336       2.226       1.115      3.7032E-03
   5    9.997       8.887       7.777       6.667       5.557       4.447       3.336       2.226       1.115      3.7032E-03
   6    9.997       8.887       7.777       6.667       5.557       4.447       3.336       2.226       1.115      3.7032E-03
   7    9.997       8.887       7.777       6.667       5.557       4.447       3.336       2.226       1.115      3.7032E-03
   8    9.997       8.887       7.777       6.667       5.557       4.447       3.336       2.226       1.115      3.7032E-03
   9    9.997       8.887       7.777       6.667       5.557       4.447       3.336       2.226       1.115      3.7032E-03
  10    9.997       8.887       7.777       6.667       5.557       4.447       3.336       2.226       1.115      3.7032E-03

 HEAD WILL BE SAVED ON UNIT   51 AT END OF TIME STEP   72, STRESS PERIOD    2

 DRAWDOWN WILL BE SAVED ON UNIT   52 AT END OF TIME STEP   72, STRESS PERIOD    2
1
  VOLUMETRIC BUDGET FOR ENTIRE MODEL AT END OF TIME STEP   72, STRESS PERIOD   2
  ------------------------------------------------------------------------------

     CUMULATIVE VOLUMES      L**3       RATES FOR THIS TIME STEP      L**3/T
     ------------------                 ------------------------

           IN:                                      IN:
           ---                                      ---
             STORAGE =       24993.4180               STORAGE =           0.5979
       CONSTANT HEAD =           0.0000         CONSTANT HEAD =           0.0000
               WELLS =           0.0000                 WELLS =           0.0000
       RIVER LEAKAGE =       32555.9531         RIVER LEAKAGE =         554.7743

            TOTAL IN =       57549.3711              TOTAL IN =         555.3722

          OUT:                                     OUT:
          ----                                     ----
             STORAGE =       1.0564E-02               STORAGE =       5.8942E-04
       CONSTANT HEAD =           0.0000         CONSTANT HEAD =           0.0000
               WELLS =           0.0000                 WELLS =           0.0000
       RIVER LEAKAGE =       57554.4805         RIVER LEAKAGE =         555.4775

           TOTAL OUT =       57554.4922             TOTAL OUT =         555.4781

            IN - OUT =          -5.1211              IN - OUT =          -0.1059

 PERCENT DISCREPANCY =          -0.01     PERCENT DISCREPANCY =          -0.02






         TIME SUMMARY AT END OF TIME STEP   72 IN STRESS PERIOD    2
                    SECONDS     MINUTES      HOURS       DAYS        YEARS
                    -----------------------------------------------------------
   TIME STEP LENGTH  86400.      1440.0      24.000      1.0000     2.73785E-03
 STRESS PERIOD TIME 6.22080E+06 1.03680E+05  1728.0      72.000     0.19713    
         TOTAL TIME 6.30720E+06 1.05120E+05  1752.0      73.000     0.19986    
1

 SOLVING FOR HEAD 

 OUTPUT CONTROL FOR STRESS PERIOD    2   TIME STEP   73
    SAVE HEAD FOR ALL LAYERS
    SAVE DRAWDOWN FOR ALL LAYERS
    SAVE BUDGET
    PRINT HEAD FOR ALL LAYERS
    PRINT BUDGET
 UBDSV1 SAVING "         STORAGE" ON UNIT  53 AT TIME STEP 73, STRESS PERIOD   2
 UBDSV2 SAVING "   CONSTANT HEAD" ON UNIT  53 AT TIME STEP 73, STRESS PERIOD   2
 UBDSV1 SAVING "FLOW RIGHT FACE " ON UNIT  53 AT TIME STEP 73, STRESS PERIOD   2
 UBDSV1 SAVING "FLOW FRONT FACE " ON UNIT  53 AT TIME STEP 73, STRESS PERIOD   2
 UBDSV1 SAVING "FLOW LOWER FACE " ON UNIT  53 AT TIME STEP 73, STRESS PERIOD   2
1
              HEAD IN LAYER   1 AT END OF TIME STEP  73 IN STRESS PERIOD    2
  ---------------------------------------------------------------------------

            1           2           3           4           5           6           7           8           9          10
 ........................................................................................................................
   1    9.997       8.887       7.777       6.667       5.557       4.447       3.336       2.225       1.115      3.7030E-03
   2    9.997       8.887       7.777       6.667       5.557       4.447       3.336       2.225       1.115      3.7030E-03
   3    9.997       8.887       7.777       6.667       5.557       4.447       3.336       2.225       1.115      3.7030E-03
   4    9.997       8.887       7.777       6.667       5.557       4.447       3.336       2.225       1.115      3.7030E-03
   5    9.997       8.887       7.777       6.667       5.557       4.447       3.336       2.225       1.115      3.7030E-03
   6    9.997       8.887       7.777       6.667       5.557       4.447       3.336       2.225       1.115      3.7030E-03
   7    9.997       8.887       7.777       6.667       5.557       4.447       3.336       2.225       1.115      3.7030E-03
   8    9.997       8.887       7.777       6.667       5.557       4.447       3.336       2.225       1.115      3.7030E-03
   9    9.997       8.887       7.777       6.667       5.557       4.447       3.336       2.225       1.115      3.7030E-03
  10    9.997       8.887       7.777       6.667       5.557       4.447       3.336       2.225       1.115      3.7030E-03
1
              HEAD IN LAYER   2 AT END OF TIME STEP  73 IN STRESS PERIOD    2
  ---------------------------------------------------------------------------

            1           2           3           4           5           6           7           8           9          10
 ........................................................................................................................
   1    9.997       8.887       7.777       6.667       5.557       4.447       3.336       2.225       1.115      3.7030E-03
   2    9.997       8.887       7.777       6.667       5.557       4.447       3.336       2.225       1.115      3.7030E-03
   3    9.997       8.887       7.777       6.667       5.557       4.447       3.336       2.225       1.115      3.7030E-03
   4    9.997       8.887       7.777       6.667       5.557       4.447       3.336       2.225       1.115      3.7030E-03
   5    9.997       8.887       7.777       6.667       5.557       4.447       3.336       2.225       1.115      3.7030E-03
   6    9.997       8.887       7.777       6.667       5.557       4.447       3.336       2.225       1.115      3.7030E-03
   7    9.997       8.887       7.777       6.667       5.557       4.447       3.336       2.225       1.115      3.7030E-03
   8    9.997       8.887       7.777       6.667       5.557       4.447       3.336       2.225       1.115      3.7030E-03
   9    9.997       8.887       7.777       6.667       5.557       4.447       3.336       2.225       1.115      3.7030E-03
  10    9.997       8.887       7.777       6.667       5.557       4.447       3.336       2.225       1.115      3.7030E-03
1
              HEAD IN LAYER   3 AT END OF TIME STEP  73 IN STRESS PERIOD    2
  ---------------------------------------------------------------------------

            1           2           3           4           5           6           7           8           9          10
 ........................................................................................................................
   1    9.997       8.887       7.777       6.667       5.557       4.447       3.336       2.225       1.115      3.7030E-03
   2    9.997       8.887       7.777       6.667       5.557       4.447       3.336       2.225       1.115      3.7030E-03
   3    9.997       8.887       7.777       6.667       5.557       4.447       3.336       2.225       1.115      3.7030E-03
   4    9.997       8.887       7.777       6.667       5.557       4.447       3.336       2.225       1.115      3.7030E-03
   5    9.997       8.887       7.777       6.667       5.557       4.447       3.336       2.225       1.115      3.7030E-03
   6    9.997       8.887       7.777       6.667       5.557       4.447       3.336       2.225       1.115      3.7030E-03
   7    9.997       8.887       7.777       6.667       5.557       4.447       3.336       2.225       1.115      3.7030E-03
   8    9.997       8.887       7.777       6.667       5.557       4.447       3.336       2.225       1.115      3.7030E-03
   9    9.997       8.887       7.777       6.667       5.557       4.447       3.336       2.225       1.115      3.7030E-03
  10    9.997       8.887       7.777       6.667       5.557       4.447       3.336       2.225       1.115      3.7030E-03

 HEAD WILL BE SAVED ON UNIT   51 AT END OF TIME STEP   73, STRESS PERIOD    2

 DRAWDOWN WILL BE SAVED ON UNIT   52 AT END OF TIME STEP   73, STRESS PERIOD    2
1
  VOLUMETRIC BUDGET FOR ENTIRE MODEL AT END OF TIME STEP   73, STRESS PERIOD   2
  ------------------------------------------------------------------------------

     CUMULATIVE VOLUMES      L**3       RATES FOR THIS TIME STEP      L**3/T
     ------------------                 ------------------------

           IN:                                      IN:
           ---                                      ---
             STORAGE =       24993.9531               STORAGE =           0.5343
       CONSTANT HEAD =           0.0000         CONSTANT HEAD =           0.0000
               WELLS =           0.0000                 WELLS =           0.0000
       RIVER LEAKAGE =       33110.7578         RIVER LEAKAGE =         554.8063

            TOTAL IN =       58104.7109              TOTAL IN =         555.3406

          OUT:                                     OUT:
          ----                                     ----
             STORAGE =       1.1118E-02               STORAGE =       5.5391E-04
       CONSTANT HEAD =           0.0000         CONSTANT HEAD =           0.0000
               WELLS =           0.0000                 WELLS =           0.0000
       RIVER LEAKAGE =       58109.9258         RIVER LEAKAGE =         555.4455

           TOTAL OUT =       58109.9375             TOTAL OUT =         555.4460

            IN - OUT =          -5.2266              IN - OUT =          -0.1055

 PERCENT DISCREPANCY =          -0.01     PERCENT DISCREPANCY =          -0.02






         TIME SUMMARY AT END OF TIME STEP   73 IN STRESS PERIOD    2
                    SECONDS     MINUTES      HOURS       DAYS        YEARS
                    -----------------------------------------------------------
   TIME STEP LENGTH  86400.      1440.0      24.000      1.0000     2.73785E-03
 STRESS PERIOD TIME 6.30720E+06 1.05120E+05  1752.0      73.000     0.19986    
         TOTAL TIME 6.39360E+06 1.06560E+05  1776.0      74.000     0.20260    
1

 SOLVING FOR HEAD 

 OUTPUT CONTROL FOR STRESS PERIOD    2   TIME STEP   74
    SAVE HEAD FOR ALL LAYERS
    SAVE DRAWDOWN FOR ALL LAYERS
    SAVE BUDGET
    PRINT HEAD FOR ALL LAYERS
    PRINT BUDGET
 UBDSV1 SAVING "         STORAGE" ON UNIT  53 AT TIME STEP 74, STRESS PERIOD   2
 UBDSV2 SAVING "   CONSTANT HEAD" ON UNIT  53 AT TIME STEP 74, STRESS PERIOD   2
 UBDSV1 SAVING "FLOW RIGHT FACE " ON UNIT  53 AT TIME STEP 74, STRESS PERIOD   2
 UBDSV1 SAVING "FLOW FRONT FACE " ON UNIT  53 AT TIME STEP 74, STRESS PERIOD   2
 UBDSV1 SAVING "FLOW LOWER FACE " ON UNIT  53 AT TIME STEP 74, STRESS PERIOD   2
1
              HEAD IN LAYER   1 AT END OF TIME STEP  74 IN STRESS PERIOD    2
  ---------------------------------------------------------------------------

            1           2           3           4           5           6           7           8           9          10
 ........................................................................................................................
   1    9.997       8.887       7.777       6.667       5.557       4.447       3.336       2.225       1.115      3.7028E-03
   2    9.997       8.887       7.777       6.667       5.557       4.447       3.336       2.225       1.115      3.7028E-03
   3    9.997       8.887       7.777       6.667       5.557       4.447       3.336       2.225       1.115      3.7028E-03
   4    9.997       8.887       7.777       6.667       5.557       4.447       3.336       2.225       1.115      3.7028E-03
   5    9.997       8.887       7.777       6.667       5.557       4.447       3.336       2.225       1.115      3.7028E-03
   6    9.997       8.887       7.777       6.667       5.557       4.447       3.336       2.225       1.115      3.7028E-03
   7    9.997       8.887       7.777       6.667       5.557       4.447       3.336       2.225       1.115      3.7028E-03
   8    9.997       8.887       7.777       6.667       5.557       4.447       3.336       2.225       1.115      3.7028E-03
   9    9.997       8.887       7.777       6.667       5.557       4.447       3.336       2.225       1.115      3.7028E-03
  10    9.997       8.887       7.777       6.667       5.557       4.447       3.336       2.225       1.115      3.7028E-03
1
              HEAD IN LAYER   2 AT END OF TIME STEP  74 IN STRESS PERIOD    2
  ---------------------------------------------------------------------------

            1           2           3           4           5           6           7           8           9          10
 ........................................................................................................................
   1    9.997       8.887       7.777       6.667       5.557       4.447       3.336       2.225       1.115      3.7028E-03
   2    9.997       8.887       7.777       6.667       5.557       4.447       3.336       2.225       1.115      3.7028E-03
   3    9.997       8.887       7.777       6.667       5.557       4.447       3.336       2.225       1.115      3.7028E-03
   4    9.997       8.887       7.777       6.667       5.557       4.447       3.336       2.225       1.115      3.7028E-03
   5    9.997       8.887       7.777       6.667       5.557       4.447       3.336       2.225       1.115      3.7028E-03
   6    9.997       8.887       7.777       6.667       5.557       4.447       3.336       2.225       1.115      3.7028E-03
   7    9.997       8.887       7.777       6.667       5.557       4.447       3.336       2.225       1.115      3.7028E-03
   8    9.997       8.887       7.777       6.667       5.557       4.447       3.336       2.225       1.115      3.7028E-03
   9    9.997       8.887       7.777       6.667       5.557       4.447       3.336       2.225       1.115      3.7028E-03
  10    9.997       8.887       7.777       6.667       5.557       4.447       3.336       2.225       1.115      3.7028E-03
1
              HEAD IN LAYER   3 AT END OF TIME STEP  74 IN STRESS PERIOD    2
  ---------------------------------------------------------------------------

            1           2           3           4           5           6           7           8           9          10
 ........................................................................................................................
   1    9.997       8.887       7.777       6.667       5.557       4.447       3.336       2.225       1.115      3.7028E-03
   2    9.997       8.887       7.777       6.667       5.557       4.447       3.336       2.225       1.115      3.7028E-03
   3    9.997       8.887       7.777       6.667       5.557       4.447       3.336       2.225       1.115      3.7028E-03
   4    9.997       8.887       7.777       6.667       5.557       4.447       3.336       2.225       1.115      3.7028E-03
   5    9.997       8.887       7.777       6.667       5.557       4.447       3.336       2.225       1.115      3.7028E-03
   6    9.997       8.887       7.777       6.667       5.557       4.447       3.336       2.225       1.115      3.7028E-03
   7    9.997       8.887       7.777       6.667       5.557       4.447       3.336       2.225       1.115      3.7028E-03
   8    9.997       8.887       7.777       6.667       5.557       4.447       3.336       2.225       1.115      3.7028E-03
   9    9.997       8.887       7.777       6.667       5.557       4.447       3.336       2.225       1.115      3.7028E-03
  10    9.997       8.887       7.777       6.667       5.557       4.447       3.336       2.225       1.115      3.7028E-03

 HEAD WILL BE SAVED ON UNIT   51 AT END OF TIME STEP   74, STRESS PERIOD    2

 DRAWDOWN WILL BE SAVED ON UNIT   52 AT END OF TIME STEP   74, STRESS PERIOD    2
1
  VOLUMETRIC BUDGET FOR ENTIRE MODEL AT END OF TIME STEP   74, STRESS PERIOD   2
  ------------------------------------------------------------------------------

     CUMULATIVE VOLUMES      L**3       RATES FOR THIS TIME STEP      L**3/T
     ------------------                 ------------------------

           IN:                                      IN:
           ---                                      ---
             STORAGE =       24994.4297               STORAGE =           0.4761
       CONSTANT HEAD =           0.0000         CONSTANT HEAD =           0.0000
               WELLS =           0.0000                 WELLS =           0.0000
       RIVER LEAKAGE =       33665.5938         RIVER LEAKAGE =         554.8350

            TOTAL IN =       58660.0234              TOTAL IN =         555.3110

          OUT:                                     OUT:
          ----                                     ----
             STORAGE =       1.1703E-02               STORAGE =       5.8522E-04
       CONSTANT HEAD =           0.0000         CONSTANT HEAD =           0.0000
               WELLS =           0.0000                 WELLS =           0.0000
       RIVER LEAKAGE =       58665.3438         RIVER LEAKAGE =         555.4164

           TOTAL OUT =       58665.3555             TOTAL OUT =         555.4171

            IN - OUT =          -5.3320              IN - OUT =          -0.1060

 PERCENT DISCREPANCY =          -0.01     PERCENT DISCREPANCY =          -0.02






         TIME SUMMARY AT END OF TIME STEP   74 IN STRESS PERIOD    2
                    SECONDS     MINUTES      HOURS       DAYS        YEARS
                    -----------------------------------------------------------
   TIME STEP LENGTH  86400.      1440.0      24.000      1.0000     2.73785E-03
 STRESS PERIOD TIME 6.39360E+06 1.06560E+05  1776.0      74.000     0.20260    
         TOTAL TIME 6.48000E+06 1.08000E+05  1800.0      75.000     0.20534    
1

 SOLVING FOR HEAD 

 OUTPUT CONTROL FOR STRESS PERIOD    2   TIME STEP   75
    SAVE HEAD FOR ALL LAYERS
    SAVE DRAWDOWN FOR ALL LAYERS
    SAVE BUDGET
    PRINT HEAD FOR ALL LAYERS
    PRINT BUDGET
 UBDSV1 SAVING "         STORAGE" ON UNIT  53 AT TIME STEP 75, STRESS PERIOD   2
 UBDSV2 SAVING "   CONSTANT HEAD" ON UNIT  53 AT TIME STEP 75, STRESS PERIOD   2
 UBDSV1 SAVING "FLOW RIGHT FACE " ON UNIT  53 AT TIME STEP 75, STRESS PERIOD   2
 UBDSV1 SAVING "FLOW FRONT FACE " ON UNIT  53 AT TIME STEP 75, STRESS PERIOD   2
 UBDSV1 SAVING "FLOW LOWER FACE " ON UNIT  53 AT TIME STEP 75, STRESS PERIOD   2
1
              HEAD IN LAYER   1 AT END OF TIME STEP  75 IN STRESS PERIOD    2
  ---------------------------------------------------------------------------

            1           2           3           4           5           6           7           8           9          10
 ........................................................................................................................
   1    9.997       8.887       7.777       6.667       5.557       4.446       3.336       2.225       1.114      3.7026E-03
   2    9.997       8.887       7.777       6.667       5.557       4.446       3.336       2.225       1.114      3.7026E-03
   3    9.997       8.887       7.777       6.667       5.557       4.446       3.336       2.225       1.114      3.7026E-03
   4    9.997       8.887       7.777       6.667       5.557       4.446       3.336       2.225       1.114      3.7026E-03
   5    9.997       8.887       7.777       6.667       5.557       4.446       3.336       2.225       1.114      3.7026E-03
   6    9.997       8.887       7.777       6.667       5.557       4.446       3.336       2.225       1.114      3.7026E-03
   7    9.997       8.887       7.777       6.667       5.557       4.446       3.336       2.225       1.114      3.7026E-03
   8    9.997       8.887       7.777       6.667       5.557       4.446       3.336       2.225       1.114      3.7026E-03
   9    9.997       8.887       7.777       6.667       5.557       4.446       3.336       2.225       1.114      3.7026E-03
  10    9.997       8.887       7.777       6.667       5.557       4.446       3.336       2.225       1.114      3.7026E-03
1
              HEAD IN LAYER   2 AT END OF TIME STEP  75 IN STRESS PERIOD    2
  ---------------------------------------------------------------------------

            1           2           3           4           5           6           7           8           9          10
 ........................................................................................................................
   1    9.997       8.887       7.777       6.667       5.557       4.446       3.336       2.225       1.114      3.7026E-03
   2    9.997       8.887       7.777       6.667       5.557       4.446       3.336       2.225       1.114      3.7026E-03
   3    9.997       8.887       7.777       6.667       5.557       4.446       3.336       2.225       1.114      3.7026E-03
   4    9.997       8.887       7.777       6.667       5.557       4.446       3.336       2.225       1.114      3.7026E-03
   5    9.997       8.887       7.777       6.667       5.557       4.446       3.336       2.225       1.114      3.7026E-03
   6    9.997       8.887       7.777       6.667       5.557       4.446       3.336       2.225       1.114      3.7026E-03
   7    9.997       8.887       7.777       6.667       5.557       4.446       3.336       2.225       1.114      3.7026E-03
   8    9.997       8.887       7.777       6.667       5.557       4.446       3.336       2.225       1.114      3.7026E-03
   9    9.997       8.887       7.777       6.667       5.557       4.446       3.336       2.225       1.114      3.7026E-03
  10    9.997       8.887       7.777       6.667       5.557       4.446       3.336       2.225       1.114      3.7026E-03
1
              HEAD IN LAYER   3 AT END OF TIME STEP  75 IN STRESS PERIOD    2
  ---------------------------------------------------------------------------

            1           2           3           4           5           6           7           8           9          10
 ........................................................................................................................
   1    9.997       8.887       7.777       6.667       5.557       4.446       3.336       2.225       1.114      3.7026E-03
   2    9.997       8.887       7.777       6.667       5.557       4.446       3.336       2.225       1.114      3.7026E-03
   3    9.997       8.887       7.777       6.667       5.557       4.446       3.336       2.225       1.114      3.7026E-03
   4    9.997       8.887       7.777       6.667       5.557       4.446       3.336       2.225       1.114      3.7026E-03
   5    9.997       8.887       7.777       6.667       5.557       4.446       3.336       2.225       1.114      3.7026E-03
   6    9.997       8.887       7.777       6.667       5.557       4.446       3.336       2.225       1.114      3.7026E-03
   7    9.997       8.887       7.777       6.667       5.557       4.446       3.336       2.225       1.114      3.7026E-03
   8    9.997       8.887       7.777       6.667       5.557       4.446       3.336       2.225       1.114      3.7026E-03
   9    9.997       8.887       7.777       6.667       5.557       4.446       3.336       2.225       1.114      3.7026E-03
  10    9.997       8.887       7.777       6.667       5.557       4.446       3.336       2.225       1.114      3.7026E-03

 HEAD WILL BE SAVED ON UNIT   51 AT END OF TIME STEP   75, STRESS PERIOD    2

 DRAWDOWN WILL BE SAVED ON UNIT   52 AT END OF TIME STEP   75, STRESS PERIOD    2
1
  VOLUMETRIC BUDGET FOR ENTIRE MODEL AT END OF TIME STEP   75, STRESS PERIOD   2
  ------------------------------------------------------------------------------

     CUMULATIVE VOLUMES      L**3       RATES FOR THIS TIME STEP      L**3/T
     ------------------                 ------------------------

           IN:                                      IN:
           ---                                      ---
             STORAGE =       24994.8535               STORAGE =           0.4248
       CONSTANT HEAD =           0.0000         CONSTANT HEAD =           0.0000
               WELLS =           0.0000                 WELLS =           0.0000
       RIVER LEAKAGE =       34220.4531         RIVER LEAKAGE =         554.8606

            TOTAL IN =       59215.3047              TOTAL IN =         555.2854

          OUT:                                     OUT:
          ----                                     ----
             STORAGE =       1.2232E-02               STORAGE =       5.2851E-04
       CONSTANT HEAD =           0.0000         CONSTANT HEAD =           0.0000
               WELLS =           0.0000                 WELLS =           0.0000
       RIVER LEAKAGE =       59220.7344         RIVER LEAKAGE =         555.3909

           TOTAL OUT =       59220.7461             TOTAL OUT =         555.3914

            IN - OUT =          -5.4414              IN - OUT =          -0.1060

 PERCENT DISCREPANCY =          -0.01     PERCENT DISCREPANCY =          -0.02






         TIME SUMMARY AT END OF TIME STEP   75 IN STRESS PERIOD    2
                    SECONDS     MINUTES      HOURS       DAYS        YEARS
                    -----------------------------------------------------------
   TIME STEP LENGTH  86400.      1440.0      24.000      1.0000     2.73785E-03
 STRESS PERIOD TIME 6.48000E+06 1.08000E+05  1800.0      75.000     0.20534    
         TOTAL TIME 6.56640E+06 1.09440E+05  1824.0      76.000     0.20808    
1

 SOLVING FOR HEAD 

 OUTPUT CONTROL FOR STRESS PERIOD    2   TIME STEP   76
    SAVE HEAD FOR ALL LAYERS
    SAVE DRAWDOWN FOR ALL LAYERS
    SAVE BUDGET
    PRINT HEAD FOR ALL LAYERS
    PRINT BUDGET
 UBDSV1 SAVING "         STORAGE" ON UNIT  53 AT TIME STEP 76, STRESS PERIOD   2
 UBDSV2 SAVING "   CONSTANT HEAD" ON UNIT  53 AT TIME STEP 76, STRESS PERIOD   2
 UBDSV1 SAVING "FLOW RIGHT FACE " ON UNIT  53 AT TIME STEP 76, STRESS PERIOD   2
 UBDSV1 SAVING "FLOW FRONT FACE " ON UNIT  53 AT TIME STEP 76, STRESS PERIOD   2
 UBDSV1 SAVING "FLOW LOWER FACE " ON UNIT  53 AT TIME STEP 76, STRESS PERIOD   2
1
              HEAD IN LAYER   1 AT END OF TIME STEP  76 IN STRESS PERIOD    2
  ---------------------------------------------------------------------------

            1           2           3           4           5           6           7           8           9          10
 ........................................................................................................................
   1    9.997       8.887       7.777       6.667       5.557       4.446       3.336       2.225       1.114      3.7025E-03
   2    9.997       8.887       7.777       6.667       5.557       4.446       3.336       2.225       1.114      3.7025E-03
   3    9.997       8.887       7.777       6.667       5.557       4.446       3.336       2.225       1.114      3.7025E-03
   4    9.997       8.887       7.777       6.667       5.557       4.446       3.336       2.225       1.114      3.7025E-03
   5    9.997       8.887       7.777       6.667       5.557       4.446       3.336       2.225       1.114      3.7025E-03
   6    9.997       8.887       7.777       6.667       5.557       4.446       3.336       2.225       1.114      3.7025E-03
   7    9.997       8.887       7.777       6.667       5.557       4.446       3.336       2.225       1.114      3.7025E-03
   8    9.997       8.887       7.777       6.667       5.557       4.446       3.336       2.225       1.114      3.7025E-03
   9    9.997       8.887       7.777       6.667       5.557       4.446       3.336       2.225       1.114      3.7025E-03
  10    9.997       8.887       7.777       6.667       5.557       4.446       3.336       2.225       1.114      3.7025E-03
1
              HEAD IN LAYER   2 AT END OF TIME STEP  76 IN STRESS PERIOD    2
  ---------------------------------------------------------------------------

            1           2           3           4           5           6           7           8           9          10
 ........................................................................................................................
   1    9.997       8.887       7.777       6.667       5.557       4.446       3.336       2.225       1.114      3.7025E-03
   2    9.997       8.887       7.777       6.667       5.557       4.446       3.336       2.225       1.114      3.7025E-03
   3    9.997       8.887       7.777       6.667       5.557       4.446       3.336       2.225       1.114      3.7025E-03
   4    9.997       8.887       7.777       6.667       5.557       4.446       3.336       2.225       1.114      3.7025E-03
   5    9.997       8.887       7.777       6.667       5.557       4.446       3.336       2.225       1.114      3.7025E-03
   6    9.997       8.887       7.777       6.667       5.557       4.446       3.336       2.225       1.114      3.7025E-03
   7    9.997       8.887       7.777       6.667       5.557       4.446       3.336       2.225       1.114      3.7025E-03
   8    9.997       8.887       7.777       6.667       5.557       4.446       3.336       2.225       1.114      3.7025E-03
   9    9.997       8.887       7.777       6.667       5.557       4.446       3.336       2.225       1.114      3.7025E-03
  10    9.997       8.887       7.777       6.667       5.557       4.446       3.336       2.225       1.114      3.7025E-03
1
              HEAD IN LAYER   3 AT END OF TIME STEP  76 IN STRESS PERIOD    2
  ---------------------------------------------------------------------------

            1           2           3           4           5           6           7           8           9          10
 ........................................................................................................................
   1    9.997       8.887       7.777       6.667       5.557       4.446       3.336       2.225       1.114      3.7025E-03
   2    9.997       8.887       7.777       6.667       5.557       4.446       3.336       2.225       1.114      3.7025E-03
   3    9.997       8.887       7.777       6.667       5.557       4.446       3.336       2.225       1.114      3.7025E-03
   4    9.997       8.887       7.777       6.667       5.557       4.446       3.336       2.225       1.114      3.7025E-03
   5    9.997       8.887       7.777       6.667       5.557       4.446       3.336       2.225       1.114      3.7025E-03
   6    9.997       8.887       7.777       6.667       5.557       4.446       3.336       2.225       1.114      3.7025E-03
   7    9.997       8.887       7.777       6.667       5.557       4.446       3.336       2.225       1.114      3.7025E-03
   8    9.997       8.887       7.777       6.667       5.557       4.446       3.336       2.225       1.114      3.7025E-03
   9    9.997       8.887       7.777       6.667       5.557       4.446       3.336       2.225       1.114      3.7025E-03
  10    9.997       8.887       7.777       6.667       5.557       4.446       3.336       2.225       1.114      3.7025E-03

 HEAD WILL BE SAVED ON UNIT   51 AT END OF TIME STEP   76, STRESS PERIOD    2

 DRAWDOWN WILL BE SAVED ON UNIT   52 AT END OF TIME STEP   76, STRESS PERIOD    2
1
  VOLUMETRIC BUDGET FOR ENTIRE MODEL AT END OF TIME STEP   76, STRESS PERIOD   2
  ------------------------------------------------------------------------------

     CUMULATIVE VOLUMES      L**3       RATES FOR THIS TIME STEP      L**3/T
     ------------------                 ------------------------

           IN:                                      IN:
           ---                                      ---
             STORAGE =       24995.2324               STORAGE =           0.3794
       CONSTANT HEAD =           0.0000         CONSTANT HEAD =           0.0000
               WELLS =           0.0000                 WELLS =           0.0000
       RIVER LEAKAGE =       34775.3359         RIVER LEAKAGE =         554.8833

            TOTAL IN =       59770.5703              TOTAL IN =         555.2627

          OUT:                                     OUT:
          ----                                     ----
             STORAGE =       1.2710E-02               STORAGE =       4.7761E-04
       CONSTANT HEAD =           0.0000         CONSTANT HEAD =           0.0000
               WELLS =           0.0000                 WELLS =           0.0000
       RIVER LEAKAGE =       59776.1016         RIVER LEAKAGE =         555.3679

           TOTAL OUT =       59776.1133             TOTAL OUT =         555.3684

            IN - OUT =          -5.5430              IN - OUT =          -0.1057

 PERCENT DISCREPANCY =          -0.01     PERCENT DISCREPANCY =          -0.02






         TIME SUMMARY AT END OF TIME STEP   76 IN STRESS PERIOD    2
                    SECONDS     MINUTES      HOURS       DAYS        YEARS
                    -----------------------------------------------------------
   TIME STEP LENGTH  86400.      1440.0      24.000      1.0000     2.73785E-03
 STRESS PERIOD TIME 6.56640E+06 1.09440E+05  1824.0      76.000     0.20808    
         TOTAL TIME 6.65280E+06 1.10880E+05  1848.0      77.000     0.21081    
1

 SOLVING FOR HEAD 

 OUTPUT CONTROL FOR STRESS PERIOD    2   TIME STEP   77
    SAVE HEAD FOR ALL LAYERS
    SAVE DRAWDOWN FOR ALL LAYERS
    SAVE BUDGET
    PRINT HEAD FOR ALL LAYERS
    PRINT BUDGET
 UBDSV1 SAVING "         STORAGE" ON UNIT  53 AT TIME STEP 77, STRESS PERIOD   2
 UBDSV2 SAVING "   CONSTANT HEAD" ON UNIT  53 AT TIME STEP 77, STRESS PERIOD   2
 UBDSV1 SAVING "FLOW RIGHT FACE " ON UNIT  53 AT TIME STEP 77, STRESS PERIOD   2
 UBDSV1 SAVING "FLOW FRONT FACE " ON UNIT  53 AT TIME STEP 77, STRESS PERIOD   2
 UBDSV1 SAVING "FLOW LOWER FACE " ON UNIT  53 AT TIME STEP 77, STRESS PERIOD   2
1
              HEAD IN LAYER   1 AT END OF TIME STEP  77 IN STRESS PERIOD    2
  ---------------------------------------------------------------------------

            1           2           3           4           5           6           7           8           9          10
 ........................................................................................................................
   1    9.997       8.887       7.777       6.667       5.556       4.446       3.336       2.225       1.114      3.7023E-03
   2    9.997       8.887       7.777       6.667       5.556       4.446       3.336       2.225       1.114      3.7023E-03
   3    9.997       8.887       7.777       6.667       5.556       4.446       3.336       2.225       1.114      3.7023E-03
   4    9.997       8.887       7.777       6.667       5.556       4.446       3.336       2.225       1.114      3.7023E-03
   5    9.997       8.887       7.777       6.667       5.556       4.446       3.336       2.225       1.114      3.7023E-03
   6    9.997       8.887       7.777       6.667       5.556       4.446       3.336       2.225       1.114      3.7023E-03
   7    9.997       8.887       7.777       6.667       5.556       4.446       3.336       2.225       1.114      3.7023E-03
   8    9.997       8.887       7.777       6.667       5.556       4.446       3.336       2.225       1.114      3.7023E-03
   9    9.997       8.887       7.777       6.667       5.556       4.446       3.336       2.225       1.114      3.7023E-03
  10    9.997       8.887       7.777       6.667       5.556       4.446       3.336       2.225       1.114      3.7023E-03
1
              HEAD IN LAYER   2 AT END OF TIME STEP  77 IN STRESS PERIOD    2
  ---------------------------------------------------------------------------

            1           2           3           4           5           6           7           8           9          10
 ........................................................................................................................
   1    9.997       8.887       7.777       6.667       5.556       4.446       3.336       2.225       1.114      3.7023E-03
   2    9.997       8.887       7.777       6.667       5.556       4.446       3.336       2.225       1.114      3.7023E-03
   3    9.997       8.887       7.777       6.667       5.556       4.446       3.336       2.225       1.114      3.7023E-03
   4    9.997       8.887       7.777       6.667       5.556       4.446       3.336       2.225       1.114      3.7023E-03
   5    9.997       8.887       7.777       6.667       5.556       4.446       3.336       2.225       1.114      3.7023E-03
   6    9.997       8.887       7.777       6.667       5.556       4.446       3.336       2.225       1.114      3.7023E-03
   7    9.997       8.887       7.777       6.667       5.556       4.446       3.336       2.225       1.114      3.7023E-03
   8    9.997       8.887       7.777       6.667       5.556       4.446       3.336       2.225       1.114      3.7023E-03
   9    9.997       8.887       7.777       6.667       5.556       4.446       3.336       2.225       1.114      3.7023E-03
  10    9.997       8.887       7.777       6.667       5.556       4.446       3.336       2.225       1.114      3.7023E-03
1
              HEAD IN LAYER   3 AT END OF TIME STEP  77 IN STRESS PERIOD    2
  ---------------------------------------------------------------------------

            1           2           3           4           5           6           7           8           9          10
 ........................................................................................................................
   1    9.997       8.887       7.777       6.667       5.556       4.446       3.336       2.225       1.114      3.7023E-03
   2    9.997       8.887       7.777       6.667       5.556       4.446       3.336       2.225       1.114      3.7023E-03
   3    9.997       8.887       7.777       6.667       5.556       4.446       3.336       2.225       1.114      3.7023E-03
   4    9.997       8.887       7.777       6.667       5.556       4.446       3.336       2.225       1.114      3.7023E-03
   5    9.997       8.887       7.777       6.667       5.556       4.446       3.336       2.225       1.114      3.7023E-03
   6    9.997       8.887       7.777       6.667       5.556       4.446       3.336       2.225       1.114      3.7023E-03
   7    9.997       8.887       7.777       6.667       5.556       4.446       3.336       2.225       1.114      3.7023E-03
   8    9.997       8.887       7.777       6.667       5.556       4.446       3.336       2.225       1.114      3.7023E-03
   9    9.997       8.887       7.777       6.667       5.556       4.446       3.336       2.225       1.114      3.7023E-03
  10    9.997       8.887       7.777       6.667       5.556       4.446       3.336       2.225       1.114      3.7023E-03

 HEAD WILL BE SAVED ON UNIT   51 AT END OF TIME STEP   77, STRESS PERIOD    2

 DRAWDOWN WILL BE SAVED ON UNIT   52 AT END OF TIME STEP   77, STRESS PERIOD    2
1
  VOLUMETRIC BUDGET FOR ENTIRE MODEL AT END OF TIME STEP   77, STRESS PERIOD   2
  ------------------------------------------------------------------------------

     CUMULATIVE VOLUMES      L**3       RATES FOR THIS TIME STEP      L**3/T
     ------------------                 ------------------------

           IN:                                      IN:
           ---                                      ---
             STORAGE =       24995.5703               STORAGE =           0.3381
       CONSTANT HEAD =           0.0000         CONSTANT HEAD =           0.0000
               WELLS =           0.0000                 WELLS =           0.0000
       RIVER LEAKAGE =       35330.2383         RIVER LEAKAGE =         554.9038

            TOTAL IN =       60325.8086              TOTAL IN =         555.2419

          OUT:                                     OUT:
          ----                                     ----
             STORAGE =       1.3015E-02               STORAGE =       3.0518E-04
       CONSTANT HEAD =           0.0000         CONSTANT HEAD =           0.0000
               WELLS =           0.0000                 WELLS =           0.0000
       RIVER LEAKAGE =       60331.4492         RIVER LEAKAGE =         555.3475

           TOTAL OUT =       60331.4609             TOTAL OUT =         555.3478

            IN - OUT =          -5.6523              IN - OUT =          -0.1059

 PERCENT DISCREPANCY =          -0.01     PERCENT DISCREPANCY =          -0.02






         TIME SUMMARY AT END OF TIME STEP   77 IN STRESS PERIOD    2
                    SECONDS     MINUTES      HOURS       DAYS        YEARS
                    -----------------------------------------------------------
   TIME STEP LENGTH  86400.      1440.0      24.000      1.0000     2.73785E-03
 STRESS PERIOD TIME 6.65280E+06 1.10880E+05  1848.0      77.000     0.21081    
         TOTAL TIME 6.73920E+06 1.12320E+05  1872.0      78.000     0.21355    
1

 SOLVING FOR HEAD 

 OUTPUT CONTROL FOR STRESS PERIOD    2   TIME STEP   78
    SAVE HEAD FOR ALL LAYERS
    SAVE DRAWDOWN FOR ALL LAYERS
    SAVE BUDGET
    PRINT HEAD FOR ALL LAYERS
    PRINT BUDGET
 UBDSV1 SAVING "         STORAGE" ON UNIT  53 AT TIME STEP 78, STRESS PERIOD   2
 UBDSV2 SAVING "   CONSTANT HEAD" ON UNIT  53 AT TIME STEP 78, STRESS PERIOD   2
 UBDSV1 SAVING "FLOW RIGHT FACE " ON UNIT  53 AT TIME STEP 78, STRESS PERIOD   2
 UBDSV1 SAVING "FLOW FRONT FACE " ON UNIT  53 AT TIME STEP 78, STRESS PERIOD   2
 UBDSV1 SAVING "FLOW LOWER FACE " ON UNIT  53 AT TIME STEP 78, STRESS PERIOD   2
1
              HEAD IN LAYER   1 AT END OF TIME STEP  78 IN STRESS PERIOD    2
  ---------------------------------------------------------------------------

            1           2           3           4           5           6           7           8           9          10
 ........................................................................................................................
   1    9.997       8.887       7.777       6.667       5.556       4.446       3.336       2.225       1.114      3.7022E-03
   2    9.997       8.887       7.777       6.667       5.556       4.446       3.336       2.225       1.114      3.7022E-03
   3    9.997       8.887       7.777       6.667       5.556       4.446       3.336       2.225       1.114      3.7022E-03
   4    9.997       8.887       7.777       6.667       5.556       4.446       3.336       2.225       1.114      3.7022E-03
   5    9.997       8.887       7.777       6.667       5.556       4.446       3.336       2.225       1.114      3.7022E-03
   6    9.997       8.887       7.777       6.667       5.556       4.446       3.336       2.225       1.114      3.7022E-03
   7    9.997       8.887       7.777       6.667       5.556       4.446       3.336       2.225       1.114      3.7022E-03
   8    9.997       8.887       7.777       6.667       5.556       4.446       3.336       2.225       1.114      3.7022E-03
   9    9.997       8.887       7.777       6.667       5.556       4.446       3.336       2.225       1.114      3.7022E-03
  10    9.997       8.887       7.777       6.667       5.556       4.446       3.336       2.225       1.114      3.7022E-03
1
              HEAD IN LAYER   2 AT END OF TIME STEP  78 IN STRESS PERIOD    2
  ---------------------------------------------------------------------------

            1           2           3           4           5           6           7           8           9          10
 ........................................................................................................................
   1    9.997       8.887       7.777       6.667       5.556       4.446       3.336       2.225       1.114      3.7022E-03
   2    9.997       8.887       7.777       6.667       5.556       4.446       3.336       2.225       1.114      3.7022E-03
   3    9.997       8.887       7.777       6.667       5.556       4.446       3.336       2.225       1.114      3.7022E-03
   4    9.997       8.887       7.777       6.667       5.556       4.446       3.336       2.225       1.114      3.7022E-03
   5    9.997       8.887       7.777       6.667       5.556       4.446       3.336       2.225       1.114      3.7022E-03
   6    9.997       8.887       7.777       6.667       5.556       4.446       3.336       2.225       1.114      3.7022E-03
   7    9.997       8.887       7.777       6.667       5.556       4.446       3.336       2.225       1.114      3.7022E-03
   8    9.997       8.887       7.777       6.667       5.556       4.446       3.336       2.225       1.114      3.7022E-03
   9    9.997       8.887       7.777       6.667       5.556       4.446       3.336       2.225       1.114      3.7022E-03
  10    9.997       8.887       7.777       6.667       5.556       4.446       3.336       2.225       1.114      3.7022E-03
1
              HEAD IN LAYER   3 AT END OF TIME STEP  78 IN STRESS PERIOD    2
  ---------------------------------------------------------------------------

            1           2           3           4           5           6           7           8           9          10
 ........................................................................................................................
   1    9.997       8.887       7.777       6.667       5.556       4.446       3.336       2.225       1.114      3.7022E-03
   2    9.997       8.887       7.777       6.667       5.556       4.446       3.336       2.225       1.114      3.7022E-03
   3    9.997       8.887       7.777       6.667       5.556       4.446       3.336       2.225       1.114      3.7022E-03
   4    9.997       8.887       7.777       6.667       5.556       4.446       3.336       2.225       1.114      3.7022E-03
   5    9.997       8.887       7.777       6.667       5.556       4.446       3.336       2.225       1.114      3.7022E-03
   6    9.997       8.887       7.777       6.667       5.556       4.446       3.336       2.225       1.114      3.7022E-03
   7    9.997       8.887       7.777       6.667       5.556       4.446       3.336       2.225       1.114      3.7022E-03
   8    9.997       8.887       7.777       6.667       5.556       4.446       3.336       2.225       1.114      3.7022E-03
   9    9.997       8.887       7.777       6.667       5.556       4.446       3.336       2.225       1.114      3.7022E-03
  10    9.997       8.887       7.777       6.667       5.556       4.446       3.336       2.225       1.114      3.7022E-03

 HEAD WILL BE SAVED ON UNIT   51 AT END OF TIME STEP   78, STRESS PERIOD    2

 DRAWDOWN WILL BE SAVED ON UNIT   52 AT END OF TIME STEP   78, STRESS PERIOD    2
1
  VOLUMETRIC BUDGET FOR ENTIRE MODEL AT END OF TIME STEP   78, STRESS PERIOD   2
  ------------------------------------------------------------------------------

     CUMULATIVE VOLUMES      L**3       RATES FOR THIS TIME STEP      L**3/T
     ------------------                 ------------------------

           IN:                                      IN:
           ---                                      ---
             STORAGE =       24995.8711               STORAGE =           0.3014
       CONSTANT HEAD =           0.0000         CONSTANT HEAD =           0.0000
               WELLS =           0.0000                 WELLS =           0.0000
       RIVER LEAKAGE =       35885.1992         RIVER LEAKAGE =         554.9608

            TOTAL IN =       60881.0703              TOTAL IN =         555.2622

          OUT:                                     OUT:
          ----                                     ----
             STORAGE =       1.3320E-02               STORAGE =       3.0518E-04
       CONSTANT HEAD =           0.0000         CONSTANT HEAD =           0.0000
               WELLS =           0.0000                 WELLS =           0.0000
       RIVER LEAKAGE =       60886.7773         RIVER LEAKAGE =         555.3294

           TOTAL OUT =       60886.7891             TOTAL OUT =         555.3297

            IN - OUT =          -5.7188              IN - OUT =      -6.7505E-02

 PERCENT DISCREPANCY =          -0.01     PERCENT DISCREPANCY =          -0.01






         TIME SUMMARY AT END OF TIME STEP   78 IN STRESS PERIOD    2
                    SECONDS     MINUTES      HOURS       DAYS        YEARS
                    -----------------------------------------------------------
   TIME STEP LENGTH  86400.      1440.0      24.000      1.0000     2.73785E-03
 STRESS PERIOD TIME 6.73920E+06 1.12320E+05  1872.0      78.000     0.21355    
         TOTAL TIME 6.82560E+06 1.13760E+05  1896.0      79.000     0.21629    
1

 SOLVING FOR HEAD 

 OUTPUT CONTROL FOR STRESS PERIOD    2   TIME STEP   79
    SAVE HEAD FOR ALL LAYERS
    SAVE DRAWDOWN FOR ALL LAYERS
    SAVE BUDGET
    PRINT HEAD FOR ALL LAYERS
    PRINT BUDGET
 UBDSV1 SAVING "         STORAGE" ON UNIT  53 AT TIME STEP 79, STRESS PERIOD   2
 UBDSV2 SAVING "   CONSTANT HEAD" ON UNIT  53 AT TIME STEP 79, STRESS PERIOD   2
 UBDSV1 SAVING "FLOW RIGHT FACE " ON UNIT  53 AT TIME STEP 79, STRESS PERIOD   2
 UBDSV1 SAVING "FLOW FRONT FACE " ON UNIT  53 AT TIME STEP 79, STRESS PERIOD   2
 UBDSV1 SAVING "FLOW LOWER FACE " ON UNIT  53 AT TIME STEP 79, STRESS PERIOD   2
1
              HEAD IN LAYER   1 AT END OF TIME STEP  79 IN STRESS PERIOD    2
  ---------------------------------------------------------------------------

            1           2           3           4           5           6           7           8           9          10
 ........................................................................................................................
   1    9.997       8.887       7.777       6.667       5.556       4.446       3.335       2.225       1.114      3.7021E-03
   2    9.997       8.887       7.777       6.667       5.556       4.446       3.335       2.225       1.114      3.7021E-03
   3    9.997       8.887       7.777       6.667       5.556       4.446       3.335       2.225       1.114      3.7021E-03
   4    9.997       8.887       7.777       6.667       5.556       4.446       3.335       2.225       1.114      3.7021E-03
   5    9.997       8.887       7.777       6.667       5.556       4.446       3.335       2.225       1.114      3.7021E-03
   6    9.997       8.887       7.777       6.667       5.556       4.446       3.335       2.225       1.114      3.7021E-03
   7    9.997       8.887       7.777       6.667       5.556       4.446       3.335       2.225       1.114      3.7021E-03
   8    9.997       8.887       7.777       6.667       5.556       4.446       3.335       2.225       1.114      3.7021E-03
   9    9.997       8.887       7.777       6.667       5.556       4.446       3.335       2.225       1.114      3.7021E-03
  10    9.997       8.887       7.777       6.667       5.556       4.446       3.335       2.225       1.114      3.7021E-03
1
              HEAD IN LAYER   2 AT END OF TIME STEP  79 IN STRESS PERIOD    2
  ---------------------------------------------------------------------------

            1           2           3           4           5           6           7           8           9          10
 ........................................................................................................................
   1    9.997       8.887       7.777       6.667       5.556       4.446       3.335       2.225       1.114      3.7021E-03
   2    9.997       8.887       7.777       6.667       5.556       4.446       3.335       2.225       1.114      3.7021E-03
   3    9.997       8.887       7.777       6.667       5.556       4.446       3.335       2.225       1.114      3.7021E-03
   4    9.997       8.887       7.777       6.667       5.556       4.446       3.335       2.225       1.114      3.7021E-03
   5    9.997       8.887       7.777       6.667       5.556       4.446       3.335       2.225       1.114      3.7021E-03
   6    9.997       8.887       7.777       6.667       5.556       4.446       3.335       2.225       1.114      3.7021E-03
   7    9.997       8.887       7.777       6.667       5.556       4.446       3.335       2.225       1.114      3.7021E-03
   8    9.997       8.887       7.777       6.667       5.556       4.446       3.335       2.225       1.114      3.7021E-03
   9    9.997       8.887       7.777       6.667       5.556       4.446       3.335       2.225       1.114      3.7021E-03
  10    9.997       8.887       7.777       6.667       5.556       4.446       3.335       2.225       1.114      3.7021E-03
1
              HEAD IN LAYER   3 AT END OF TIME STEP  79 IN STRESS PERIOD    2
  ---------------------------------------------------------------------------

            1           2           3           4           5           6           7           8           9          10
 ........................................................................................................................
   1    9.997       8.887       7.777       6.667       5.556       4.446       3.335       2.225       1.114      3.7021E-03
   2    9.997       8.887       7.777       6.667       5.556       4.446       3.335       2.225       1.114      3.7021E-03
   3    9.997       8.887       7.777       6.667       5.556       4.446       3.335       2.225       1.114      3.7021E-03
   4    9.997       8.887       7.777       6.667       5.556       4.446       3.335       2.225       1.114      3.7021E-03
   5    9.997       8.887       7.777       6.667       5.556       4.446       3.335       2.225       1.114      3.7021E-03
   6    9.997       8.887       7.777       6.667       5.556       4.446       3.335       2.225       1.114      3.7021E-03
   7    9.997       8.887       7.777       6.667       5.556       4.446       3.335       2.225       1.114      3.7021E-03
   8    9.997       8.887       7.777       6.667       5.556       4.446       3.335       2.225       1.114      3.7021E-03
   9    9.997       8.887       7.777       6.667       5.556       4.446       3.335       2.225       1.114      3.7021E-03
  10    9.997       8.887       7.777       6.667       5.556       4.446       3.335       2.225       1.114      3.7021E-03

 HEAD WILL BE SAVED ON UNIT   51 AT END OF TIME STEP   79, STRESS PERIOD    2

 DRAWDOWN WILL BE SAVED ON UNIT   52 AT END OF TIME STEP   79, STRESS PERIOD    2
1
  VOLUMETRIC BUDGET FOR ENTIRE MODEL AT END OF TIME STEP   79, STRESS PERIOD   2
  ------------------------------------------------------------------------------

     CUMULATIVE VOLUMES      L**3       RATES FOR THIS TIME STEP      L**3/T
     ------------------                 ------------------------

           IN:                                      IN:
           ---                                      ---
             STORAGE =       24996.1406               STORAGE =           0.2692
       CONSTANT HEAD =           0.0000         CONSTANT HEAD =           0.0000
               WELLS =           0.0000                 WELLS =           0.0000
       RIVER LEAKAGE =       36440.1758         RIVER LEAKAGE =         554.9768

            TOTAL IN =       61436.3164              TOTAL IN =         555.2460

          OUT:                                     OUT:
          ----                                     ----
             STORAGE =       1.3625E-02               STORAGE =       3.0518E-04
       CONSTANT HEAD =           0.0000         CONSTANT HEAD =           0.0000
               WELLS =           0.0000                 WELLS =           0.0000
       RIVER LEAKAGE =       61442.0898         RIVER LEAKAGE =         555.3132

           TOTAL OUT =       61442.1016             TOTAL OUT =         555.3135

            IN - OUT =          -5.7852              IN - OUT =      -6.7444E-02

 PERCENT DISCREPANCY =          -0.01     PERCENT DISCREPANCY =          -0.01






         TIME SUMMARY AT END OF TIME STEP   79 IN STRESS PERIOD    2
                    SECONDS     MINUTES      HOURS       DAYS        YEARS
                    -----------------------------------------------------------
   TIME STEP LENGTH  86400.      1440.0      24.000      1.0000     2.73785E-03
 STRESS PERIOD TIME 6.82560E+06 1.13760E+05  1896.0      79.000     0.21629    
         TOTAL TIME 6.91200E+06 1.15200E+05  1920.0      80.000     0.21903    
1

 SOLVING FOR HEAD 

 OUTPUT CONTROL FOR STRESS PERIOD    2   TIME STEP   80
    SAVE HEAD FOR ALL LAYERS
    SAVE DRAWDOWN FOR ALL LAYERS
    SAVE BUDGET
    PRINT HEAD FOR ALL LAYERS
    PRINT BUDGET
 UBDSV1 SAVING "         STORAGE" ON UNIT  53 AT TIME STEP 80, STRESS PERIOD   2
 UBDSV2 SAVING "   CONSTANT HEAD" ON UNIT  53 AT TIME STEP 80, STRESS PERIOD   2
 UBDSV1 SAVING "FLOW RIGHT FACE " ON UNIT  53 AT TIME STEP 80, STRESS PERIOD   2
 UBDSV1 SAVING "FLOW FRONT FACE " ON UNIT  53 AT TIME STEP 80, STRESS PERIOD   2
 UBDSV1 SAVING "FLOW LOWER FACE " ON UNIT  53 AT TIME STEP 80, STRESS PERIOD   2
1
              HEAD IN LAYER   1 AT END OF TIME STEP  80 IN STRESS PERIOD    2
  ---------------------------------------------------------------------------

            1           2           3           4           5           6           7           8           9          10
 ........................................................................................................................
   1    9.997       8.887       7.777       6.666       5.556       4.446       3.335       2.225       1.114      3.7020E-03
   2    9.997       8.887       7.777       6.666       5.556       4.446       3.335       2.225       1.114      3.7020E-03
   3    9.997       8.887       7.777       6.666       5.556       4.446       3.335       2.225       1.114      3.7020E-03
   4    9.997       8.887       7.777       6.666       5.556       4.446       3.335       2.225       1.114      3.7020E-03
   5    9.997       8.887       7.777       6.666       5.556       4.446       3.335       2.225       1.114      3.7020E-03
   6    9.997       8.887       7.777       6.666       5.556       4.446       3.335       2.225       1.114      3.7020E-03
   7    9.997       8.887       7.777       6.666       5.556       4.446       3.335       2.225       1.114      3.7020E-03
   8    9.997       8.887       7.777       6.666       5.556       4.446       3.335       2.225       1.114      3.7020E-03
   9    9.997       8.887       7.777       6.666       5.556       4.446       3.335       2.225       1.114      3.7020E-03
  10    9.997       8.887       7.777       6.666       5.556       4.446       3.335       2.225       1.114      3.7020E-03
1
              HEAD IN LAYER   2 AT END OF TIME STEP  80 IN STRESS PERIOD    2
  ---------------------------------------------------------------------------

            1           2           3           4           5           6           7           8           9          10
 ........................................................................................................................
   1    9.997       8.887       7.777       6.666       5.556       4.446       3.335       2.225       1.114      3.7020E-03
   2    9.997       8.887       7.777       6.666       5.556       4.446       3.335       2.225       1.114      3.7020E-03
   3    9.997       8.887       7.777       6.666       5.556       4.446       3.335       2.225       1.114      3.7020E-03
   4    9.997       8.887       7.777       6.666       5.556       4.446       3.335       2.225       1.114      3.7020E-03
   5    9.997       8.887       7.777       6.666       5.556       4.446       3.335       2.225       1.114      3.7020E-03
   6    9.997       8.887       7.777       6.666       5.556       4.446       3.335       2.225       1.114      3.7020E-03
   7    9.997       8.887       7.777       6.666       5.556       4.446       3.335       2.225       1.114      3.7020E-03
   8    9.997       8.887       7.777       6.666       5.556       4.446       3.335       2.225       1.114      3.7020E-03
   9    9.997       8.887       7.777       6.666       5.556       4.446       3.335       2.225       1.114      3.7020E-03
  10    9.997       8.887       7.777       6.666       5.556       4.446       3.335       2.225       1.114      3.7020E-03
1
              HEAD IN LAYER   3 AT END OF TIME STEP  80 IN STRESS PERIOD    2
  ---------------------------------------------------------------------------

            1           2           3           4           5           6           7           8           9          10
 ........................................................................................................................
   1    9.997       8.887       7.777       6.666       5.556       4.446       3.335       2.225       1.114      3.7020E-03
   2    9.997       8.887       7.777       6.666       5.556       4.446       3.335       2.225       1.114      3.7020E-03
   3    9.997       8.887       7.777       6.666       5.556       4.446       3.335       2.225       1.114      3.7020E-03
   4    9.997       8.887       7.777       6.666       5.556       4.446       3.335       2.225       1.114      3.7020E-03
   5    9.997       8.887       7.777       6.666       5.556       4.446       3.335       2.225       1.114      3.7020E-03
   6    9.997       8.887       7.777       6.666       5.556       4.446       3.335       2.225       1.114      3.7020E-03
   7    9.997       8.887       7.777       6.666       5.556       4.446       3.335       2.225       1.114      3.7020E-03
   8    9.997       8.887       7.777       6.666       5.556       4.446       3.335       2.225       1.114      3.7020E-03
   9    9.997       8.887       7.777       6.666       5.556       4.446       3.335       2.225       1.114      3.7020E-03
  10    9.997       8.887       7.777       6.666       5.556       4.446       3.335       2.225       1.114      3.7020E-03

 HEAD WILL BE SAVED ON UNIT   51 AT END OF TIME STEP   80, STRESS PERIOD    2

 DRAWDOWN WILL BE SAVED ON UNIT   52 AT END OF TIME STEP   80, STRESS PERIOD    2
1
  VOLUMETRIC BUDGET FOR ENTIRE MODEL AT END OF TIME STEP   80, STRESS PERIOD   2
  ------------------------------------------------------------------------------

     CUMULATIVE VOLUMES      L**3       RATES FOR THIS TIME STEP      L**3/T
     ------------------                 ------------------------

           IN:                                      IN:
           ---                                      ---
             STORAGE =       24996.3809               STORAGE =           0.2403
       CONSTANT HEAD =           0.0000         CONSTANT HEAD =           0.0000
               WELLS =           0.0000                 WELLS =           0.0000
       RIVER LEAKAGE =       36995.1680         RIVER LEAKAGE =         554.9914

            TOTAL IN =       61991.5469              TOTAL IN =         555.2317

          OUT:                                     OUT:
          ----                                     ----
             STORAGE =       1.4472E-02               STORAGE =       8.4711E-04
       CONSTANT HEAD =           0.0000         CONSTANT HEAD =           0.0000
               WELLS =           0.0000                 WELLS =           0.0000
       RIVER LEAKAGE =       61997.3867         RIVER LEAKAGE =         555.2980

           TOTAL OUT =       61997.4023             TOTAL OUT =         555.2989

            IN - OUT =          -5.8555              IN - OUT =      -6.7200E-02

 PERCENT DISCREPANCY =          -0.01     PERCENT DISCREPANCY =          -0.01






         TIME SUMMARY AT END OF TIME STEP   80 IN STRESS PERIOD    2
                    SECONDS     MINUTES      HOURS       DAYS        YEARS
                    -----------------------------------------------------------
   TIME STEP LENGTH  86400.      1440.0      24.000      1.0000     2.73785E-03
 STRESS PERIOD TIME 6.91200E+06 1.15200E+05  1920.0      80.000     0.21903    
         TOTAL TIME 6.99840E+06 1.16640E+05  1944.0      81.000     0.22177    
1

 SOLVING FOR HEAD 

 OUTPUT CONTROL FOR STRESS PERIOD    2   TIME STEP   81
    SAVE HEAD FOR ALL LAYERS
    SAVE DRAWDOWN FOR ALL LAYERS
    SAVE BUDGET
    PRINT HEAD FOR ALL LAYERS
    PRINT BUDGET
 UBDSV1 SAVING "         STORAGE" ON UNIT  53 AT TIME STEP 81, STRESS PERIOD   2
 UBDSV2 SAVING "   CONSTANT HEAD" ON UNIT  53 AT TIME STEP 81, STRESS PERIOD   2
 UBDSV1 SAVING "FLOW RIGHT FACE " ON UNIT  53 AT TIME STEP 81, STRESS PERIOD   2
 UBDSV1 SAVING "FLOW FRONT FACE " ON UNIT  53 AT TIME STEP 81, STRESS PERIOD   2
 UBDSV1 SAVING "FLOW LOWER FACE " ON UNIT  53 AT TIME STEP 81, STRESS PERIOD   2
1
              HEAD IN LAYER   1 AT END OF TIME STEP  81 IN STRESS PERIOD    2
  ---------------------------------------------------------------------------

            1           2           3           4           5           6           7           8           9          10
 ........................................................................................................................
   1    9.997       8.887       7.777       6.666       5.556       4.446       3.335       2.225       1.114      3.7019E-03
   2    9.997       8.887       7.777       6.666       5.556       4.446       3.335       2.225       1.114      3.7019E-03
   3    9.997       8.887       7.777       6.666       5.556       4.446       3.335       2.225       1.114      3.7019E-03
   4    9.997       8.887       7.777       6.666       5.556       4.446       3.335       2.225       1.114      3.7019E-03
   5    9.997       8.887       7.777       6.666       5.556       4.446       3.335       2.225       1.114      3.7019E-03
   6    9.997       8.887       7.777       6.666       5.556       4.446       3.335       2.225       1.114      3.7019E-03
   7    9.997       8.887       7.777       6.666       5.556       4.446       3.335       2.225       1.114      3.7019E-03
   8    9.997       8.887       7.777       6.666       5.556       4.446       3.335       2.225       1.114      3.7019E-03
   9    9.997       8.887       7.777       6.666       5.556       4.446       3.335       2.225       1.114      3.7019E-03
  10    9.997       8.887       7.777       6.666       5.556       4.446       3.335       2.225       1.114      3.7019E-03
1
              HEAD IN LAYER   2 AT END OF TIME STEP  81 IN STRESS PERIOD    2
  ---------------------------------------------------------------------------

            1           2           3           4           5           6           7           8           9          10
 ........................................................................................................................
   1    9.997       8.887       7.777       6.666       5.556       4.446       3.335       2.225       1.114      3.7019E-03
   2    9.997       8.887       7.777       6.666       5.556       4.446       3.335       2.225       1.114      3.7019E-03
   3    9.997       8.887       7.777       6.666       5.556       4.446       3.335       2.225       1.114      3.7019E-03
   4    9.997       8.887       7.777       6.666       5.556       4.446       3.335       2.225       1.114      3.7019E-03
   5    9.997       8.887       7.777       6.666       5.556       4.446       3.335       2.225       1.114      3.7019E-03
   6    9.997       8.887       7.777       6.666       5.556       4.446       3.335       2.225       1.114      3.7019E-03
   7    9.997       8.887       7.777       6.666       5.556       4.446       3.335       2.225       1.114      3.7019E-03
   8    9.997       8.887       7.777       6.666       5.556       4.446       3.335       2.225       1.114      3.7019E-03
   9    9.997       8.887       7.777       6.666       5.556       4.446       3.335       2.225       1.114      3.7019E-03
  10    9.997       8.887       7.777       6.666       5.556       4.446       3.335       2.225       1.114      3.7019E-03
1
              HEAD IN LAYER   3 AT END OF TIME STEP  81 IN STRESS PERIOD    2
  ---------------------------------------------------------------------------

            1           2           3           4           5           6           7           8           9          10
 ........................................................................................................................
   1    9.997       8.887       7.777       6.666       5.556       4.446       3.335       2.225       1.114      3.7019E-03
   2    9.997       8.887       7.777       6.666       5.556       4.446       3.335       2.225       1.114      3.7019E-03
   3    9.997       8.887       7.777       6.666       5.556       4.446       3.335       2.225       1.114      3.7019E-03
   4    9.997       8.887       7.777       6.666       5.556       4.446       3.335       2.225       1.114      3.7019E-03
   5    9.997       8.887       7.777       6.666       5.556       4.446       3.335       2.225       1.114      3.7019E-03
   6    9.997       8.887       7.777       6.666       5.556       4.446       3.335       2.225       1.114      3.7019E-03
   7    9.997       8.887       7.777       6.666       5.556       4.446       3.335       2.225       1.114      3.7019E-03
   8    9.997       8.887       7.777       6.666       5.556       4.446       3.335       2.225       1.114      3.7019E-03
   9    9.997       8.887       7.777       6.666       5.556       4.446       3.335       2.225       1.114      3.7019E-03
  10    9.997       8.887       7.777       6.666       5.556       4.446       3.335       2.225       1.114      3.7019E-03

 HEAD WILL BE SAVED ON UNIT   51 AT END OF TIME STEP   81, STRESS PERIOD    2

 DRAWDOWN WILL BE SAVED ON UNIT   52 AT END OF TIME STEP   81, STRESS PERIOD    2
1
  VOLUMETRIC BUDGET FOR ENTIRE MODEL AT END OF TIME STEP   81, STRESS PERIOD   2
  ------------------------------------------------------------------------------

     CUMULATIVE VOLUMES      L**3       RATES FOR THIS TIME STEP      L**3/T
     ------------------                 ------------------------

           IN:                                      IN:
           ---                                      ---
             STORAGE =       24996.5957               STORAGE =           0.2146
       CONSTANT HEAD =           0.0000         CONSTANT HEAD =           0.0000
               WELLS =           0.0000                 WELLS =           0.0000
       RIVER LEAKAGE =       37550.1719         RIVER LEAKAGE =         555.0043

            TOTAL IN =       62546.7656              TOTAL IN =         555.2189

          OUT:                                     OUT:
          ----                                     ----
             STORAGE =       1.5305E-02               STORAGE =       8.3301E-04
       CONSTANT HEAD =           0.0000         CONSTANT HEAD =           0.0000
               WELLS =           0.0000                 WELLS =           0.0000
       RIVER LEAKAGE =       62552.6719         RIVER LEAKAGE =         555.2853

           TOTAL OUT =       62552.6875             TOTAL OUT =         555.2862

            IN - OUT =          -5.9219              IN - OUT =      -6.7261E-02

 PERCENT DISCREPANCY =          -0.01     PERCENT DISCREPANCY =          -0.01






         TIME SUMMARY AT END OF TIME STEP   81 IN STRESS PERIOD    2
                    SECONDS     MINUTES      HOURS       DAYS        YEARS
                    -----------------------------------------------------------
   TIME STEP LENGTH  86400.      1440.0      24.000      1.0000     2.73785E-03
 STRESS PERIOD TIME 6.99840E+06 1.16640E+05  1944.0      81.000     0.22177    
         TOTAL TIME 7.08480E+06 1.18080E+05  1968.0      82.000     0.22450    
1

 SOLVING FOR HEAD 

 OUTPUT CONTROL FOR STRESS PERIOD    2   TIME STEP   82
    SAVE HEAD FOR ALL LAYERS
    SAVE DRAWDOWN FOR ALL LAYERS
    SAVE BUDGET
    PRINT HEAD FOR ALL LAYERS
    PRINT BUDGET
 UBDSV1 SAVING "         STORAGE" ON UNIT  53 AT TIME STEP 82, STRESS PERIOD   2
 UBDSV2 SAVING "   CONSTANT HEAD" ON UNIT  53 AT TIME STEP 82, STRESS PERIOD   2
 UBDSV1 SAVING "FLOW RIGHT FACE " ON UNIT  53 AT TIME STEP 82, STRESS PERIOD   2
 UBDSV1 SAVING "FLOW FRONT FACE " ON UNIT  53 AT TIME STEP 82, STRESS PERIOD   2
 UBDSV1 SAVING "FLOW LOWER FACE " ON UNIT  53 AT TIME STEP 82, STRESS PERIOD   2
1
              HEAD IN LAYER   1 AT END OF TIME STEP  82 IN STRESS PERIOD    2
  ---------------------------------------------------------------------------

            1           2           3           4           5           6           7           8           9          10
 ........................................................................................................................
   1    9.997       8.887       7.777       6.666       5.556       4.446       3.335       2.225       1.114      3.7018E-03
   2    9.997       8.887       7.777       6.666       5.556       4.446       3.335       2.225       1.114      3.7018E-03
   3    9.997       8.887       7.777       6.666       5.556       4.446       3.335       2.225       1.114      3.7018E-03
   4    9.997       8.887       7.777       6.666       5.556       4.446       3.335       2.225       1.114      3.7018E-03
   5    9.997       8.887       7.777       6.666       5.556       4.446       3.335       2.225       1.114      3.7018E-03
   6    9.997       8.887       7.777       6.666       5.556       4.446       3.335       2.225       1.114      3.7018E-03
   7    9.997       8.887       7.777       6.666       5.556       4.446       3.335       2.225       1.114      3.7018E-03
   8    9.997       8.887       7.777       6.666       5.556       4.446       3.335       2.225       1.114      3.7018E-03
   9    9.997       8.887       7.777       6.666       5.556       4.446       3.335       2.225       1.114      3.7018E-03
  10    9.997       8.887       7.777       6.666       5.556       4.446       3.335       2.225       1.114      3.7018E-03
1
              HEAD IN LAYER   2 AT END OF TIME STEP  82 IN STRESS PERIOD    2
  ---------------------------------------------------------------------------

            1           2           3           4           5           6           7           8           9          10
 ........................................................................................................................
   1    9.997       8.887       7.777       6.666       5.556       4.446       3.335       2.225       1.114      3.7018E-03
   2    9.997       8.887       7.777       6.666       5.556       4.446       3.335       2.225       1.114      3.7018E-03
   3    9.997       8.887       7.777       6.666       5.556       4.446       3.335       2.225       1.114      3.7018E-03
   4    9.997       8.887       7.777       6.666       5.556       4.446       3.335       2.225       1.114      3.7018E-03
   5    9.997       8.887       7.777       6.666       5.556       4.446       3.335       2.225       1.114      3.7018E-03
   6    9.997       8.887       7.777       6.666       5.556       4.446       3.335       2.225       1.114      3.7018E-03
   7    9.997       8.887       7.777       6.666       5.556       4.446       3.335       2.225       1.114      3.7018E-03
   8    9.997       8.887       7.777       6.666       5.556       4.446       3.335       2.225       1.114      3.7018E-03
   9    9.997       8.887       7.777       6.666       5.556       4.446       3.335       2.225       1.114      3.7018E-03
  10    9.997       8.887       7.777       6.666       5.556       4.446       3.335       2.225       1.114      3.7018E-03
1
              HEAD IN LAYER   3 AT END OF TIME STEP  82 IN STRESS PERIOD    2
  ---------------------------------------------------------------------------

            1           2           3           4           5           6           7           8           9          10
 ........................................................................................................................
   1    9.997       8.887       7.777       6.666       5.556       4.446       3.335       2.225       1.114      3.7018E-03
   2    9.997       8.887       7.777       6.666       5.556       4.446       3.335       2.225       1.114      3.7018E-03
   3    9.997       8.887       7.777       6.666       5.556       4.446       3.335       2.225       1.114      3.7018E-03
   4    9.997       8.887       7.777       6.666       5.556       4.446       3.335       2.225       1.114      3.7018E-03
   5    9.997       8.887       7.777       6.666       5.556       4.446       3.335       2.225       1.114      3.7018E-03
   6    9.997       8.887       7.777       6.666       5.556       4.446       3.335       2.225       1.114      3.7018E-03
   7    9.997       8.887       7.777       6.666       5.556       4.446       3.335       2.225       1.114      3.7018E-03
   8    9.997       8.887       7.777       6.666       5.556       4.446       3.335       2.225       1.114      3.7018E-03
   9    9.997       8.887       7.777       6.666       5.556       4.446       3.335       2.225       1.114      3.7018E-03
  10    9.997       8.887       7.777       6.666       5.556       4.446       3.335       2.225       1.114      3.7018E-03

 HEAD WILL BE SAVED ON UNIT   51 AT END OF TIME STEP   82, STRESS PERIOD    2

 DRAWDOWN WILL BE SAVED ON UNIT   52 AT END OF TIME STEP   82, STRESS PERIOD    2
1
  VOLUMETRIC BUDGET FOR ENTIRE MODEL AT END OF TIME STEP   82, STRESS PERIOD   2
  ------------------------------------------------------------------------------

     CUMULATIVE VOLUMES      L**3       RATES FOR THIS TIME STEP      L**3/T
     ------------------                 ------------------------

           IN:                                      IN:
           ---                                      ---
             STORAGE =       24996.7871               STORAGE =           0.1915
       CONSTANT HEAD =           0.0000         CONSTANT HEAD =           0.0000
               WELLS =           0.0000                 WELLS =           0.0000
       RIVER LEAKAGE =       38105.1875         RIVER LEAKAGE =         555.0158

            TOTAL IN =       63101.9766              TOTAL IN =         555.2073

          OUT:                                     OUT:
          ----                                     ----
             STORAGE =       1.6126E-02               STORAGE =       8.2035E-04
       CONSTANT HEAD =           0.0000         CONSTANT HEAD =           0.0000
               WELLS =           0.0000                 WELLS =           0.0000
       RIVER LEAKAGE =       63107.9453         RIVER LEAKAGE =         555.2739

           TOTAL OUT =       63107.9609             TOTAL OUT =         555.2747

            IN - OUT =          -5.9844              IN - OUT =      -6.7383E-02

 PERCENT DISCREPANCY =          -0.01     PERCENT DISCREPANCY =          -0.01






         TIME SUMMARY AT END OF TIME STEP   82 IN STRESS PERIOD    2
                    SECONDS     MINUTES      HOURS       DAYS        YEARS
                    -----------------------------------------------------------
   TIME STEP LENGTH  86400.      1440.0      24.000      1.0000     2.73785E-03
 STRESS PERIOD TIME 7.08480E+06 1.18080E+05  1968.0      82.000     0.22450    
         TOTAL TIME 7.17120E+06 1.19520E+05  1992.0      83.000     0.22724    
1

 SOLVING FOR HEAD 

 OUTPUT CONTROL FOR STRESS PERIOD    2   TIME STEP   83
    SAVE HEAD FOR ALL LAYERS
    SAVE DRAWDOWN FOR ALL LAYERS
    SAVE BUDGET
    PRINT HEAD FOR ALL LAYERS
    PRINT BUDGET
 UBDSV1 SAVING "         STORAGE" ON UNIT  53 AT TIME STEP 83, STRESS PERIOD   2
 UBDSV2 SAVING "   CONSTANT HEAD" ON UNIT  53 AT TIME STEP 83, STRESS PERIOD   2
 UBDSV1 SAVING "FLOW RIGHT FACE " ON UNIT  53 AT TIME STEP 83, STRESS PERIOD   2
 UBDSV1 SAVING "FLOW FRONT FACE " ON UNIT  53 AT TIME STEP 83, STRESS PERIOD   2
 UBDSV1 SAVING "FLOW LOWER FACE " ON UNIT  53 AT TIME STEP 83, STRESS PERIOD   2
1
              HEAD IN LAYER   1 AT END OF TIME STEP  83 IN STRESS PERIOD    2
  ---------------------------------------------------------------------------

            1           2           3           4           5           6           7           8           9          10
 ........................................................................................................................
   1    9.997       8.887       7.777       6.666       5.556       4.446       3.335       2.225       1.114      3.7018E-03
   2    9.997       8.887       7.777       6.666       5.556       4.446       3.335       2.225       1.114      3.7018E-03
   3    9.997       8.887       7.777       6.666       5.556       4.446       3.335       2.225       1.114      3.7018E-03
   4    9.997       8.887       7.777       6.666       5.556       4.446       3.335       2.225       1.114      3.7018E-03
   5    9.997       8.887       7.777       6.666       5.556       4.446       3.335       2.225       1.114      3.7018E-03
   6    9.997       8.887       7.777       6.666       5.556       4.446       3.335       2.225       1.114      3.7018E-03
   7    9.997       8.887       7.777       6.666       5.556       4.446       3.335       2.225       1.114      3.7018E-03
   8    9.997       8.887       7.777       6.666       5.556       4.446       3.335       2.225       1.114      3.7018E-03
   9    9.997       8.887       7.777       6.666       5.556       4.446       3.335       2.225       1.114      3.7018E-03
  10    9.997       8.887       7.777       6.666       5.556       4.446       3.335       2.225       1.114      3.7018E-03
1
              HEAD IN LAYER   2 AT END OF TIME STEP  83 IN STRESS PERIOD    2
  ---------------------------------------------------------------------------

            1           2           3           4           5           6           7           8           9          10
 ........................................................................................................................
   1    9.997       8.887       7.777       6.666       5.556       4.446       3.335       2.225       1.114      3.7018E-03
   2    9.997       8.887       7.777       6.666       5.556       4.446       3.335       2.225       1.114      3.7018E-03
   3    9.997       8.887       7.777       6.666       5.556       4.446       3.335       2.225       1.114      3.7018E-03
   4    9.997       8.887       7.777       6.666       5.556       4.446       3.335       2.225       1.114      3.7018E-03
   5    9.997       8.887       7.777       6.666       5.556       4.446       3.335       2.225       1.114      3.7018E-03
   6    9.997       8.887       7.777       6.666       5.556       4.446       3.335       2.225       1.114      3.7018E-03
   7    9.997       8.887       7.777       6.666       5.556       4.446       3.335       2.225       1.114      3.7018E-03
   8    9.997       8.887       7.777       6.666       5.556       4.446       3.335       2.225       1.114      3.7018E-03
   9    9.997       8.887       7.777       6.666       5.556       4.446       3.335       2.225       1.114      3.7018E-03
  10    9.997       8.887       7.777       6.666       5.556       4.446       3.335       2.225       1.114      3.7018E-03
1
              HEAD IN LAYER   3 AT END OF TIME STEP  83 IN STRESS PERIOD    2
  ---------------------------------------------------------------------------

            1           2           3           4           5           6           7           8           9          10
 ........................................................................................................................
   1    9.997       8.887       7.777       6.666       5.556       4.446       3.335       2.225       1.114      3.7018E-03
   2    9.997       8.887       7.777       6.666       5.556       4.446       3.335       2.225       1.114      3.7018E-03
   3    9.997       8.887       7.777       6.666       5.556       4.446       3.335       2.225       1.114      3.7018E-03
   4    9.997       8.887       7.777       6.666       5.556       4.446       3.335       2.225       1.114      3.7018E-03
   5    9.997       8.887       7.777       6.666       5.556       4.446       3.335       2.225       1.114      3.7018E-03
   6    9.997       8.887       7.777       6.666       5.556       4.446       3.335       2.225       1.114      3.7018E-03
   7    9.997       8.887       7.777       6.666       5.556       4.446       3.335       2.225       1.114      3.7018E-03
   8    9.997       8.887       7.777       6.666       5.556       4.446       3.335       2.225       1.114      3.7018E-03
   9    9.997       8.887       7.777       6.666       5.556       4.446       3.335       2.225       1.114      3.7018E-03
  10    9.997       8.887       7.777       6.666       5.556       4.446       3.335       2.225       1.114      3.7018E-03

 HEAD WILL BE SAVED ON UNIT   51 AT END OF TIME STEP   83, STRESS PERIOD    2

 DRAWDOWN WILL BE SAVED ON UNIT   52 AT END OF TIME STEP   83, STRESS PERIOD    2
1
  VOLUMETRIC BUDGET FOR ENTIRE MODEL AT END OF TIME STEP   83, STRESS PERIOD   2
  ------------------------------------------------------------------------------

     CUMULATIVE VOLUMES      L**3       RATES FOR THIS TIME STEP      L**3/T
     ------------------                 ------------------------

           IN:                                      IN:
           ---                                      ---
             STORAGE =       24996.9570               STORAGE =           0.1706
       CONSTANT HEAD =           0.0000         CONSTANT HEAD =           0.0000
               WELLS =           0.0000                 WELLS =           0.0000
       RIVER LEAKAGE =       38660.2148         RIVER LEAKAGE =         555.0262

            TOTAL IN =       63657.1719              TOTAL IN =         555.1969

          OUT:                                     OUT:
          ----                                     ----
             STORAGE =       1.6934E-02               STORAGE =       8.0869E-04
       CONSTANT HEAD =           0.0000         CONSTANT HEAD =           0.0000
               WELLS =           0.0000                 WELLS =           0.0000
       RIVER LEAKAGE =       63663.2070         RIVER LEAKAGE =         555.2634

           TOTAL OUT =       63663.2227             TOTAL OUT =         555.2642

            IN - OUT =          -6.0508              IN - OUT =      -6.7322E-02

 PERCENT DISCREPANCY =          -0.01     PERCENT DISCREPANCY =          -0.01






         TIME SUMMARY AT END OF TIME STEP   83 IN STRESS PERIOD    2
                    SECONDS     MINUTES      HOURS       DAYS        YEARS
                    -----------------------------------------------------------
   TIME STEP LENGTH  86400.      1440.0      24.000      1.0000     2.73785E-03
 STRESS PERIOD TIME 7.17120E+06 1.19520E+05  1992.0      83.000     0.22724    
         TOTAL TIME 7.25760E+06 1.20960E+05  2016.0      84.000     0.22998    
1

 SOLVING FOR HEAD 

 OUTPUT CONTROL FOR STRESS PERIOD    2   TIME STEP   84
    SAVE HEAD FOR ALL LAYERS
    SAVE DRAWDOWN FOR ALL LAYERS
    SAVE BUDGET
    PRINT HEAD FOR ALL LAYERS
    PRINT BUDGET
 UBDSV1 SAVING "         STORAGE" ON UNIT  53 AT TIME STEP 84, STRESS PERIOD   2
 UBDSV2 SAVING "   CONSTANT HEAD" ON UNIT  53 AT TIME STEP 84, STRESS PERIOD   2
 UBDSV1 SAVING "FLOW RIGHT FACE " ON UNIT  53 AT TIME STEP 84, STRESS PERIOD   2
 UBDSV1 SAVING "FLOW FRONT FACE " ON UNIT  53 AT TIME STEP 84, STRESS PERIOD   2
 UBDSV1 SAVING "FLOW LOWER FACE " ON UNIT  53 AT TIME STEP 84, STRESS PERIOD   2
1
              HEAD IN LAYER   1 AT END OF TIME STEP  84 IN STRESS PERIOD    2
  ---------------------------------------------------------------------------

            1           2           3           4           5           6           7           8           9          10
 ........................................................................................................................
   1    9.997       8.887       7.776       6.666       5.556       4.446       3.335       2.225       1.114      3.7017E-03
   2    9.997       8.887       7.776       6.666       5.556       4.446       3.335       2.225       1.114      3.7017E-03
   3    9.997       8.887       7.776       6.666       5.556       4.446       3.335       2.225       1.114      3.7017E-03
   4    9.997       8.887       7.776       6.666       5.556       4.446       3.335       2.225       1.114      3.7017E-03
   5    9.997       8.887       7.776       6.666       5.556       4.446       3.335       2.225       1.114      3.7017E-03
   6    9.997       8.887       7.776       6.666       5.556       4.446       3.335       2.225       1.114      3.7017E-03
   7    9.997       8.887       7.776       6.666       5.556       4.446       3.335       2.225       1.114      3.7017E-03
   8    9.997       8.887       7.776       6.666       5.556       4.446       3.335       2.225       1.114      3.7017E-03
   9    9.997       8.887       7.776       6.666       5.556       4.446       3.335       2.225       1.114      3.7017E-03
  10    9.997       8.887       7.776       6.666       5.556       4.446       3.335       2.225       1.114      3.7017E-03
1
              HEAD IN LAYER   2 AT END OF TIME STEP  84 IN STRESS PERIOD    2
  ---------------------------------------------------------------------------

            1           2           3           4           5           6           7           8           9          10
 ........................................................................................................................
   1    9.997       8.887       7.776       6.666       5.556       4.446       3.335       2.225       1.114      3.7017E-03
   2    9.997       8.887       7.776       6.666       5.556       4.446       3.335       2.225       1.114      3.7017E-03
   3    9.997       8.887       7.776       6.666       5.556       4.446       3.335       2.225       1.114      3.7017E-03
   4    9.997       8.887       7.776       6.666       5.556       4.446       3.335       2.225       1.114      3.7017E-03
   5    9.997       8.887       7.776       6.666       5.556       4.446       3.335       2.225       1.114      3.7017E-03
   6    9.997       8.887       7.776       6.666       5.556       4.446       3.335       2.225       1.114      3.7017E-03
   7    9.997       8.887       7.776       6.666       5.556       4.446       3.335       2.225       1.114      3.7017E-03
   8    9.997       8.887       7.776       6.666       5.556       4.446       3.335       2.225       1.114      3.7017E-03
   9    9.997       8.887       7.776       6.666       5.556       4.446       3.335       2.225       1.114      3.7017E-03
  10    9.997       8.887       7.776       6.666       5.556       4.446       3.335       2.225       1.114      3.7017E-03
1
              HEAD IN LAYER   3 AT END OF TIME STEP  84 IN STRESS PERIOD    2
  ---------------------------------------------------------------------------

            1           2           3           4           5           6           7           8           9          10
 ........................................................................................................................
   1    9.997       8.887       7.776       6.666       5.556       4.446       3.335       2.225       1.114      3.7017E-03
   2    9.997       8.887       7.776       6.666       5.556       4.446       3.335       2.225       1.114      3.7017E-03
   3    9.997       8.887       7.776       6.666       5.556       4.446       3.335       2.225       1.114      3.7017E-03
   4    9.997       8.887       7.776       6.666       5.556       4.446       3.335       2.225       1.114      3.7017E-03
   5    9.997       8.887       7.776       6.666       5.556       4.446       3.335       2.225       1.114      3.7017E-03
   6    9.997       8.887       7.776       6.666       5.556       4.446       3.335       2.225       1.114      3.7017E-03
   7    9.997       8.887       7.776       6.666       5.556       4.446       3.335       2.225       1.114      3.7017E-03
   8    9.997       8.887       7.776       6.666       5.556       4.446       3.335       2.225       1.114      3.7017E-03
   9    9.997       8.887       7.776       6.666       5.556       4.446       3.335       2.225       1.114      3.7017E-03
  10    9.997       8.887       7.776       6.666       5.556       4.446       3.335       2.225       1.114      3.7017E-03

 HEAD WILL BE SAVED ON UNIT   51 AT END OF TIME STEP   84, STRESS PERIOD    2

 DRAWDOWN WILL BE SAVED ON UNIT   52 AT END OF TIME STEP   84, STRESS PERIOD    2
1
  VOLUMETRIC BUDGET FOR ENTIRE MODEL AT END OF TIME STEP   84, STRESS PERIOD   2
  ------------------------------------------------------------------------------

     CUMULATIVE VOLUMES      L**3       RATES FOR THIS TIME STEP      L**3/T
     ------------------                 ------------------------

           IN:                                      IN:
           ---                                      ---
             STORAGE =       24997.1094               STORAGE =           0.1523
       CONSTANT HEAD =           0.0000         CONSTANT HEAD =           0.0000
               WELLS =           0.0000                 WELLS =           0.0000
       RIVER LEAKAGE =       39215.2500         RIVER LEAKAGE =         555.0353

            TOTAL IN =       64212.3594              TOTAL IN =         555.1876

          OUT:                                     OUT:
          ----                                     ----
             STORAGE =       1.7733E-02               STORAGE =       7.9859E-04
       CONSTANT HEAD =           0.0000         CONSTANT HEAD =           0.0000
               WELLS =           0.0000                 WELLS =           0.0000
       RIVER LEAKAGE =       64218.4609         RIVER LEAKAGE =         555.2543

           TOTAL OUT =       64218.4805             TOTAL OUT =         555.2551

            IN - OUT =          -6.1211              IN - OUT =      -6.7505E-02

 PERCENT DISCREPANCY =          -0.01     PERCENT DISCREPANCY =          -0.01






         TIME SUMMARY AT END OF TIME STEP   84 IN STRESS PERIOD    2
                    SECONDS     MINUTES      HOURS       DAYS        YEARS
                    -----------------------------------------------------------
   TIME STEP LENGTH  86400.      1440.0      24.000      1.0000     2.73785E-03
 STRESS PERIOD TIME 7.25760E+06 1.20960E+05  2016.0      84.000     0.22998    
         TOTAL TIME 7.34400E+06 1.22400E+05  2040.0      85.000     0.23272    
1

 SOLVING FOR HEAD 

 OUTPUT CONTROL FOR STRESS PERIOD    2   TIME STEP   85
    SAVE HEAD FOR ALL LAYERS
    SAVE DRAWDOWN FOR ALL LAYERS
    SAVE BUDGET
    PRINT HEAD FOR ALL LAYERS
    PRINT BUDGET
 UBDSV1 SAVING "         STORAGE" ON UNIT  53 AT TIME STEP 85, STRESS PERIOD   2
 UBDSV2 SAVING "   CONSTANT HEAD" ON UNIT  53 AT TIME STEP 85, STRESS PERIOD   2
 UBDSV1 SAVING "FLOW RIGHT FACE " ON UNIT  53 AT TIME STEP 85, STRESS PERIOD   2
 UBDSV1 SAVING "FLOW FRONT FACE " ON UNIT  53 AT TIME STEP 85, STRESS PERIOD   2
 UBDSV1 SAVING "FLOW LOWER FACE " ON UNIT  53 AT TIME STEP 85, STRESS PERIOD   2
1
              HEAD IN LAYER   1 AT END OF TIME STEP  85 IN STRESS PERIOD    2
  ---------------------------------------------------------------------------

            1           2           3           4           5           6           7           8           9          10
 ........................................................................................................................
   1    9.997       8.887       7.776       6.666       5.556       4.446       3.335       2.225       1.114      3.7016E-03
   2    9.997       8.887       7.776       6.666       5.556       4.446       3.335       2.225       1.114      3.7016E-03
   3    9.997       8.887       7.776       6.666       5.556       4.446       3.335       2.225       1.114      3.7016E-03
   4    9.997       8.887       7.776       6.666       5.556       4.446       3.335       2.225       1.114      3.7016E-03
   5    9.997       8.887       7.776       6.666       5.556       4.446       3.335       2.225       1.114      3.7016E-03
   6    9.997       8.887       7.776       6.666       5.556       4.446       3.335       2.225       1.114      3.7016E-03
   7    9.997       8.887       7.776       6.666       5.556       4.446       3.335       2.225       1.114      3.7016E-03
   8    9.997       8.887       7.776       6.666       5.556       4.446       3.335       2.225       1.114      3.7016E-03
   9    9.997       8.887       7.776       6.666       5.556       4.446       3.335       2.225       1.114      3.7016E-03
  10    9.997       8.887       7.776       6.666       5.556       4.446       3.335       2.225       1.114      3.7016E-03
1
              HEAD IN LAYER   2 AT END OF TIME STEP  85 IN STRESS PERIOD    2
  ---------------------------------------------------------------------------

            1           2           3           4           5           6           7           8           9          10
 ........................................................................................................................
   1    9.997       8.887       7.776       6.666       5.556       4.446       3.335       2.225       1.114      3.7016E-03
   2    9.997       8.887       7.776       6.666       5.556       4.446       3.335       2.225       1.114      3.7016E-03
   3    9.997       8.887       7.776       6.666       5.556       4.446       3.335       2.225       1.114      3.7016E-03
   4    9.997       8.887       7.776       6.666       5.556       4.446       3.335       2.225       1.114      3.7016E-03
   5    9.997       8.887       7.776       6.666       5.556       4.446       3.335       2.225       1.114      3.7016E-03
   6    9.997       8.887       7.776       6.666       5.556       4.446       3.335       2.225       1.114      3.7016E-03
   7    9.997       8.887       7.776       6.666       5.556       4.446       3.335       2.225       1.114      3.7016E-03
   8    9.997       8.887       7.776       6.666       5.556       4.446       3.335       2.225       1.114      3.7016E-03
   9    9.997       8.887       7.776       6.666       5.556       4.446       3.335       2.225       1.114      3.7016E-03
  10    9.997       8.887       7.776       6.666       5.556       4.446       3.335       2.225       1.114      3.7016E-03
1
              HEAD IN LAYER   3 AT END OF TIME STEP  85 IN STRESS PERIOD    2
  ---------------------------------------------------------------------------

            1           2           3           4           5           6           7           8           9          10
 ........................................................................................................................
   1    9.997       8.887       7.776       6.666       5.556       4.446       3.335       2.225       1.114      3.7016E-03
   2    9.997       8.887       7.776       6.666       5.556       4.446       3.335       2.225       1.114      3.7016E-03
   3    9.997       8.887       7.776       6.666       5.556       4.446       3.335       2.225       1.114      3.7016E-03
   4    9.997       8.887       7.776       6.666       5.556       4.446       3.335       2.225       1.114      3.7016E-03
   5    9.997       8.887       7.776       6.666       5.556       4.446       3.335       2.225       1.114      3.7016E-03
   6    9.997       8.887       7.776       6.666       5.556       4.446       3.335       2.225       1.114      3.7016E-03
   7    9.997       8.887       7.776       6.666       5.556       4.446       3.335       2.225       1.114      3.7016E-03
   8    9.997       8.887       7.776       6.666       5.556       4.446       3.335       2.225       1.114      3.7016E-03
   9    9.997       8.887       7.776       6.666       5.556       4.446       3.335       2.225       1.114      3.7016E-03
  10    9.997       8.887       7.776       6.666       5.556       4.446       3.335       2.225       1.114      3.7016E-03

 HEAD WILL BE SAVED ON UNIT   51 AT END OF TIME STEP   85, STRESS PERIOD    2

 DRAWDOWN WILL BE SAVED ON UNIT   52 AT END OF TIME STEP   85, STRESS PERIOD    2
1
  VOLUMETRIC BUDGET FOR ENTIRE MODEL AT END OF TIME STEP   85, STRESS PERIOD   2
  ------------------------------------------------------------------------------

     CUMULATIVE VOLUMES      L**3       RATES FOR THIS TIME STEP      L**3/T
     ------------------                 ------------------------

           IN:                                      IN:
           ---                                      ---
             STORAGE =       24997.2461               STORAGE =           0.1358
       CONSTANT HEAD =           0.0000         CONSTANT HEAD =           0.0000
               WELLS =           0.0000                 WELLS =           0.0000
       RIVER LEAKAGE =       39770.2930         RIVER LEAKAGE =         555.0437

            TOTAL IN =       64767.5391              TOTAL IN =         555.1795

          OUT:                                     OUT:
          ----                                     ----
             STORAGE =       1.8522E-02               STORAGE =       7.8942E-04
       CONSTANT HEAD =           0.0000         CONSTANT HEAD =           0.0000
               WELLS =           0.0000                 WELLS =           0.0000
       RIVER LEAKAGE =       64773.7070         RIVER LEAKAGE =         555.2460

           TOTAL OUT =       64773.7266             TOTAL OUT =         555.2468

            IN - OUT =          -6.1875              IN - OUT =      -6.7322E-02

 PERCENT DISCREPANCY =          -0.01     PERCENT DISCREPANCY =          -0.01






         TIME SUMMARY AT END OF TIME STEP   85 IN STRESS PERIOD    2
                    SECONDS     MINUTES      HOURS       DAYS        YEARS
                    -----------------------------------------------------------
   TIME STEP LENGTH  86400.      1440.0      24.000      1.0000     2.73785E-03
 STRESS PERIOD TIME 7.34400E+06 1.22400E+05  2040.0      85.000     0.23272    
         TOTAL TIME 7.43040E+06 1.23840E+05  2064.0      86.000     0.23546    
1

 SOLVING FOR HEAD 

 OUTPUT CONTROL FOR STRESS PERIOD    2   TIME STEP   86
    SAVE HEAD FOR ALL LAYERS
    SAVE DRAWDOWN FOR ALL LAYERS
    SAVE BUDGET
    PRINT HEAD FOR ALL LAYERS
    PRINT BUDGET
 UBDSV1 SAVING "         STORAGE" ON UNIT  53 AT TIME STEP 86, STRESS PERIOD   2
 UBDSV2 SAVING "   CONSTANT HEAD" ON UNIT  53 AT TIME STEP 86, STRESS PERIOD   2
 UBDSV1 SAVING "FLOW RIGHT FACE " ON UNIT  53 AT TIME STEP 86, STRESS PERIOD   2
 UBDSV1 SAVING "FLOW FRONT FACE " ON UNIT  53 AT TIME STEP 86, STRESS PERIOD   2
 UBDSV1 SAVING "FLOW LOWER FACE " ON UNIT  53 AT TIME STEP 86, STRESS PERIOD   2
1
              HEAD IN LAYER   1 AT END OF TIME STEP  86 IN STRESS PERIOD    2
  ---------------------------------------------------------------------------

            1           2           3           4           5           6           7           8           9          10
 ........................................................................................................................
   1    9.997       8.887       7.776       6.666       5.556       4.445       3.335       2.225       1.114      3.7016E-03
   2    9.997       8.887       7.776       6.666       5.556       4.445       3.335       2.225       1.114      3.7016E-03
   3    9.997       8.887       7.776       6.666       5.556       4.445       3.335       2.225       1.114      3.7016E-03
   4    9.997       8.887       7.776       6.666       5.556       4.445       3.335       2.225       1.114      3.7016E-03
   5    9.997       8.887       7.776       6.666       5.556       4.445       3.335       2.225       1.114      3.7016E-03
   6    9.997       8.887       7.776       6.666       5.556       4.445       3.335       2.225       1.114      3.7016E-03
   7    9.997       8.887       7.776       6.666       5.556       4.445       3.335       2.225       1.114      3.7016E-03
   8    9.997       8.887       7.776       6.666       5.556       4.445       3.335       2.225       1.114      3.7016E-03
   9    9.997       8.887       7.776       6.666       5.556       4.445       3.335       2.225       1.114      3.7016E-03
  10    9.997       8.887       7.776       6.666       5.556       4.445       3.335       2.225       1.114      3.7016E-03
1
              HEAD IN LAYER   2 AT END OF TIME STEP  86 IN STRESS PERIOD    2
  ---------------------------------------------------------------------------

            1           2           3           4           5           6           7           8           9          10
 ........................................................................................................................
   1    9.997       8.887       7.776       6.666       5.556       4.445       3.335       2.225       1.114      3.7016E-03
   2    9.997       8.887       7.776       6.666       5.556       4.445       3.335       2.225       1.114      3.7016E-03
   3    9.997       8.887       7.776       6.666       5.556       4.445       3.335       2.225       1.114      3.7016E-03
   4    9.997       8.887       7.776       6.666       5.556       4.445       3.335       2.225       1.114      3.7016E-03
   5    9.997       8.887       7.776       6.666       5.556       4.445       3.335       2.225       1.114      3.7016E-03
   6    9.997       8.887       7.776       6.666       5.556       4.445       3.335       2.225       1.114      3.7016E-03
   7    9.997       8.887       7.776       6.666       5.556       4.445       3.335       2.225       1.114      3.7016E-03
   8    9.997       8.887       7.776       6.666       5.556       4.445       3.335       2.225       1.114      3.7016E-03
   9    9.997       8.887       7.776       6.666       5.556       4.445       3.335       2.225       1.114      3.7016E-03
  10    9.997       8.887       7.776       6.666       5.556       4.445       3.335       2.225       1.114      3.7016E-03
1
              HEAD IN LAYER   3 AT END OF TIME STEP  86 IN STRESS PERIOD    2
  ---------------------------------------------------------------------------

            1           2           3           4           5           6           7           8           9          10
 ........................................................................................................................
   1    9.997       8.887       7.776       6.666       5.556       4.445       3.335       2.225       1.114      3.7016E-03
   2    9.997       8.887       7.776       6.666       5.556       4.445       3.335       2.225       1.114      3.7016E-03
   3    9.997       8.887       7.776       6.666       5.556       4.445       3.335       2.225       1.114      3.7016E-03
   4    9.997       8.887       7.776       6.666       5.556       4.445       3.335       2.225       1.114      3.7016E-03
   5    9.997       8.887       7.776       6.666       5.556       4.445       3.335       2.225       1.114      3.7016E-03
   6    9.997       8.887       7.776       6.666       5.556       4.445       3.335       2.225       1.114      3.7016E-03
   7    9.997       8.887       7.776       6.666       5.556       4.445       3.335       2.225       1.114      3.7016E-03
   8    9.997       8.887       7.776       6.666       5.556       4.445       3.335       2.225       1.114      3.7016E-03
   9    9.997       8.887       7.776       6.666       5.556       4.445       3.335       2.225       1.114      3.7016E-03
  10    9.997       8.887       7.776       6.666       5.556       4.445       3.335       2.225       1.114      3.7016E-03

 HEAD WILL BE SAVED ON UNIT   51 AT END OF TIME STEP   86, STRESS PERIOD    2

 DRAWDOWN WILL BE SAVED ON UNIT   52 AT END OF TIME STEP   86, STRESS PERIOD    2
1
  VOLUMETRIC BUDGET FOR ENTIRE MODEL AT END OF TIME STEP   86, STRESS PERIOD   2
  ------------------------------------------------------------------------------

     CUMULATIVE VOLUMES      L**3       RATES FOR THIS TIME STEP      L**3/T
     ------------------                 ------------------------

           IN:                                      IN:
           ---                                      ---
             STORAGE =       24997.3672               STORAGE =           0.1210
       CONSTANT HEAD =           0.0000         CONSTANT HEAD =           0.0000
               WELLS =           0.0000                 WELLS =           0.0000
       RIVER LEAKAGE =       40325.3438         RIVER LEAKAGE =         555.0508

            TOTAL IN =       65322.7109              TOTAL IN =         555.1719

          OUT:                                     OUT:
          ----                                     ----
             STORAGE =       1.9304E-02               STORAGE =       7.8129E-04
       CONSTANT HEAD =           0.0000         CONSTANT HEAD =           0.0000
               WELLS =           0.0000                 WELLS =           0.0000
       RIVER LEAKAGE =       65328.9453         RIVER LEAKAGE =         555.2387

           TOTAL OUT =       65328.9648             TOTAL OUT =         555.2395

            IN - OUT =          -6.2539              IN - OUT =      -6.7627E-02

 PERCENT DISCREPANCY =          -0.01     PERCENT DISCREPANCY =          -0.01






         TIME SUMMARY AT END OF TIME STEP   86 IN STRESS PERIOD    2
                    SECONDS     MINUTES      HOURS       DAYS        YEARS
                    -----------------------------------------------------------
   TIME STEP LENGTH  86400.      1440.0      24.000      1.0000     2.73785E-03
 STRESS PERIOD TIME 7.43040E+06 1.23840E+05  2064.0      86.000     0.23546    
         TOTAL TIME 7.51680E+06 1.25280E+05  2088.0      87.000     0.23819    
1

 SOLVING FOR HEAD 

 OUTPUT CONTROL FOR STRESS PERIOD    2   TIME STEP   87
    SAVE HEAD FOR ALL LAYERS
    SAVE DRAWDOWN FOR ALL LAYERS
    SAVE BUDGET
    PRINT HEAD FOR ALL LAYERS
    PRINT BUDGET
 UBDSV1 SAVING "         STORAGE" ON UNIT  53 AT TIME STEP 87, STRESS PERIOD   2
 UBDSV2 SAVING "   CONSTANT HEAD" ON UNIT  53 AT TIME STEP 87, STRESS PERIOD   2
 UBDSV1 SAVING "FLOW RIGHT FACE " ON UNIT  53 AT TIME STEP 87, STRESS PERIOD   2
 UBDSV1 SAVING "FLOW FRONT FACE " ON UNIT  53 AT TIME STEP 87, STRESS PERIOD   2
 UBDSV1 SAVING "FLOW LOWER FACE " ON UNIT  53 AT TIME STEP 87, STRESS PERIOD   2
1
              HEAD IN LAYER   1 AT END OF TIME STEP  87 IN STRESS PERIOD    2
  ---------------------------------------------------------------------------

            1           2           3           4           5           6           7           8           9          10
 ........................................................................................................................
   1    9.997       8.887       7.776       6.666       5.556       4.445       3.335       2.225       1.114      3.7016E-03
   2    9.997       8.887       7.776       6.666       5.556       4.445       3.335       2.225       1.114      3.7016E-03
   3    9.997       8.887       7.776       6.666       5.556       4.445       3.335       2.225       1.114      3.7016E-03
   4    9.997       8.887       7.776       6.666       5.556       4.445       3.335       2.225       1.114      3.7016E-03
   5    9.997       8.887       7.776       6.666       5.556       4.445       3.335       2.225       1.114      3.7016E-03
   6    9.997       8.887       7.776       6.666       5.556       4.445       3.335       2.225       1.114      3.7016E-03
   7    9.997       8.887       7.776       6.666       5.556       4.445       3.335       2.225       1.114      3.7016E-03
   8    9.997       8.887       7.776       6.666       5.556       4.445       3.335       2.225       1.114      3.7016E-03
   9    9.997       8.887       7.776       6.666       5.556       4.445       3.335       2.225       1.114      3.7016E-03
  10    9.997       8.887       7.776       6.666       5.556       4.445       3.335       2.225       1.114      3.7016E-03
1
              HEAD IN LAYER   2 AT END OF TIME STEP  87 IN STRESS PERIOD    2
  ---------------------------------------------------------------------------

            1           2           3           4           5           6           7           8           9          10
 ........................................................................................................................
   1    9.997       8.887       7.776       6.666       5.556       4.445       3.335       2.225       1.114      3.7016E-03
   2    9.997       8.887       7.776       6.666       5.556       4.445       3.335       2.225       1.114      3.7016E-03
   3    9.997       8.887       7.776       6.666       5.556       4.445       3.335       2.225       1.114      3.7016E-03
   4    9.997       8.887       7.776       6.666       5.556       4.445       3.335       2.225       1.114      3.7016E-03
   5    9.997       8.887       7.776       6.666       5.556       4.445       3.335       2.225       1.114      3.7016E-03
   6    9.997       8.887       7.776       6.666       5.556       4.445       3.335       2.225       1.114      3.7016E-03
   7    9.997       8.887       7.776       6.666       5.556       4.445       3.335       2.225       1.114      3.7016E-03
   8    9.997       8.887       7.776       6.666       5.556       4.445       3.335       2.225       1.114      3.7016E-03
   9    9.997       8.887       7.776       6.666       5.556       4.445       3.335       2.225       1.114      3.7016E-03
  10    9.997       8.887       7.776       6.666       5.556       4.445       3.335       2.225       1.114      3.7016E-03
1
              HEAD IN LAYER   3 AT END OF TIME STEP  87 IN STRESS PERIOD    2
  ---------------------------------------------------------------------------

            1           2           3           4           5           6           7           8           9          10
 ........................................................................................................................
   1    9.997       8.887       7.776       6.666       5.556       4.445       3.335       2.225       1.114      3.7015E-03
   2    9.997       8.887       7.776       6.666       5.556       4.445       3.335       2.225       1.114      3.7015E-03
   3    9.997       8.887       7.776       6.666       5.556       4.445       3.335       2.225       1.114      3.7015E-03
   4    9.997       8.887       7.776       6.666       5.556       4.445       3.335       2.225       1.114      3.7015E-03
   5    9.997       8.887       7.776       6.666       5.556       4.445       3.335       2.225       1.114      3.7015E-03
   6    9.997       8.887       7.776       6.666       5.556       4.445       3.335       2.225       1.114      3.7015E-03
   7    9.997       8.887       7.776       6.666       5.556       4.445       3.335       2.225       1.114      3.7015E-03
   8    9.997       8.887       7.776       6.666       5.556       4.445       3.335       2.225       1.114      3.7015E-03
   9    9.997       8.887       7.776       6.666       5.556       4.445       3.335       2.225       1.114      3.7015E-03
  10    9.997       8.887       7.776       6.666       5.556       4.445       3.335       2.225       1.114      3.7015E-03

 HEAD WILL BE SAVED ON UNIT   51 AT END OF TIME STEP   87, STRESS PERIOD    2

 DRAWDOWN WILL BE SAVED ON UNIT   52 AT END OF TIME STEP   87, STRESS PERIOD    2
1
  VOLUMETRIC BUDGET FOR ENTIRE MODEL AT END OF TIME STEP   87, STRESS PERIOD   2
  ------------------------------------------------------------------------------

     CUMULATIVE VOLUMES      L**3       RATES FOR THIS TIME STEP      L**3/T
     ------------------                 ------------------------

           IN:                                      IN:
           ---                                      ---
             STORAGE =       24997.4766               STORAGE =           0.1088
       CONSTANT HEAD =           0.0000         CONSTANT HEAD =           0.0000
               WELLS =           0.0000                 WELLS =           0.0000
       RIVER LEAKAGE =       40880.4023         RIVER LEAKAGE =         555.0572

            TOTAL IN =       65877.8750              TOTAL IN =         555.1660

          OUT:                                     OUT:
          ----                                     ----
             STORAGE =       2.0078E-02               STORAGE =       7.7438E-04
       CONSTANT HEAD =           0.0000         CONSTANT HEAD =           0.0000
               WELLS =           0.0000                 WELLS =           0.0000
       RIVER LEAKAGE =       65884.1797         RIVER LEAKAGE =         555.2325

           TOTAL OUT =       65884.2031             TOTAL OUT =         555.2333

            IN - OUT =          -6.3281              IN - OUT =      -6.7261E-02

 PERCENT DISCREPANCY =          -0.01     PERCENT DISCREPANCY =          -0.01






         TIME SUMMARY AT END OF TIME STEP   87 IN STRESS PERIOD    2
                    SECONDS     MINUTES      HOURS       DAYS        YEARS
                    -----------------------------------------------------------
   TIME STEP LENGTH  86400.      1440.0      24.000      1.0000     2.73785E-03
 STRESS PERIOD TIME 7.51680E+06 1.25280E+05  2088.0      87.000     0.23819    
         TOTAL TIME 7.60320E+06 1.26720E+05  2112.0      88.000     0.24093    
1

 SOLVING FOR HEAD 

 OUTPUT CONTROL FOR STRESS PERIOD    2   TIME STEP   88
    SAVE HEAD FOR ALL LAYERS
    SAVE DRAWDOWN FOR ALL LAYERS
    SAVE BUDGET
    PRINT HEAD FOR ALL LAYERS
    PRINT BUDGET
 UBDSV1 SAVING "         STORAGE" ON UNIT  53 AT TIME STEP 88, STRESS PERIOD   2
 UBDSV2 SAVING "   CONSTANT HEAD" ON UNIT  53 AT TIME STEP 88, STRESS PERIOD   2
 UBDSV1 SAVING "FLOW RIGHT FACE " ON UNIT  53 AT TIME STEP 88, STRESS PERIOD   2
 UBDSV1 SAVING "FLOW FRONT FACE " ON UNIT  53 AT TIME STEP 88, STRESS PERIOD   2
 UBDSV1 SAVING "FLOW LOWER FACE " ON UNIT  53 AT TIME STEP 88, STRESS PERIOD   2
1
              HEAD IN LAYER   1 AT END OF TIME STEP  88 IN STRESS PERIOD    2
  ---------------------------------------------------------------------------

            1           2           3           4           5           6           7           8           9          10
 ........................................................................................................................
   1    9.997       8.887       7.776       6.666       5.556       4.445       3.335       2.225       1.114      3.7015E-03
   2    9.997       8.887       7.776       6.666       5.556       4.445       3.335       2.225       1.114      3.7015E-03
   3    9.997       8.887       7.776       6.666       5.556       4.445       3.335       2.225       1.114      3.7015E-03
   4    9.997       8.887       7.776       6.666       5.556       4.445       3.335       2.225       1.114      3.7015E-03
   5    9.997       8.887       7.776       6.666       5.556       4.445       3.335       2.225       1.114      3.7015E-03
   6    9.997       8.887       7.776       6.666       5.556       4.445       3.335       2.225       1.114      3.7015E-03
   7    9.997       8.887       7.776       6.666       5.556       4.445       3.335       2.225       1.114      3.7015E-03
   8    9.997       8.887       7.776       6.666       5.556       4.445       3.335       2.225       1.114      3.7015E-03
   9    9.997       8.887       7.776       6.666       5.556       4.445       3.335       2.225       1.114      3.7015E-03
  10    9.997       8.887       7.776       6.666       5.556       4.445       3.335       2.225       1.114      3.7015E-03
1
              HEAD IN LAYER   2 AT END OF TIME STEP  88 IN STRESS PERIOD    2
  ---------------------------------------------------------------------------

            1           2           3           4           5           6           7           8           9          10
 ........................................................................................................................
   1    9.997       8.887       7.776       6.666       5.556       4.445       3.335       2.225       1.114      3.7015E-03
   2    9.997       8.887       7.776       6.666       5.556       4.445       3.335       2.225       1.114      3.7015E-03
   3    9.997       8.887       7.776       6.666       5.556       4.445       3.335       2.225       1.114      3.7015E-03
   4    9.997       8.887       7.776       6.666       5.556       4.445       3.335       2.225       1.114      3.7015E-03
   5    9.997       8.887       7.776       6.666       5.556       4.445       3.335       2.225       1.114      3.7015E-03
   6    9.997       8.887       7.776       6.666       5.556       4.445       3.335       2.225       1.114      3.7015E-03
   7    9.997       8.887       7.776       6.666       5.556       4.445       3.335       2.225       1.114      3.7015E-03
   8    9.997       8.887       7.776       6.666       5.556       4.445       3.335       2.225       1.114      3.7015E-03
   9    9.997       8.887       7.776       6.666       5.556       4.445       3.335       2.225       1.114      3.7015E-03
  10    9.997       8.887       7.776       6.666       5.556       4.445       3.335       2.225       1.114      3.7015E-03
1
              HEAD IN LAYER   3 AT END OF TIME STEP  88 IN STRESS PERIOD    2
  ---------------------------------------------------------------------------

            1           2           3           4           5           6           7           8           9          10
 ........................................................................................................................
   1    9.997       8.887       7.776       6.666       5.556       4.445       3.335       2.225       1.114      3.7015E-03
   2    9.997       8.887       7.776       6.666       5.556       4.445       3.335       2.225       1.114      3.7015E-03
   3    9.997       8.887       7.776       6.666       5.556       4.445       3.335       2.225       1.114      3.7015E-03
   4    9.997       8.887       7.776       6.666       5.556       4.445       3.335       2.225       1.114      3.7015E-03
   5    9.997       8.887       7.776       6.666       5.556       4.445       3.335       2.225       1.114      3.7015E-03
   6    9.997       8.887       7.776       6.666       5.556       4.445       3.335       2.225       1.114      3.7015E-03
   7    9.997       8.887       7.776       6.666       5.556       4.445       3.335       2.225       1.114      3.7015E-03
   8    9.997       8.887       7.776       6.666       5.556       4.445       3.335       2.225       1.114      3.7015E-03
   9    9.997       8.887       7.776       6.666       5.556       4.445       3.335       2.225       1.114      3.7015E-03
  10    9.997       8.887       7.776       6.666       5.556       4.445       3.335       2.225       1.114      3.7015E-03

 HEAD WILL BE SAVED ON UNIT   51 AT END OF TIME STEP   88, STRESS PERIOD    2

 DRAWDOWN WILL BE SAVED ON UNIT   52 AT END OF TIME STEP   88, STRESS PERIOD    2
1
  VOLUMETRIC BUDGET FOR ENTIRE MODEL AT END OF TIME STEP   88, STRESS PERIOD   2
  ------------------------------------------------------------------------------

     CUMULATIVE VOLUMES      L**3       RATES FOR THIS TIME STEP      L**3/T
     ------------------                 ------------------------

           IN:                                      IN:
           ---                                      ---
             STORAGE =       24997.5723               STORAGE =       9.5899E-02
       CONSTANT HEAD =           0.0000         CONSTANT HEAD =           0.0000
               WELLS =           0.0000                 WELLS =           0.0000
       RIVER LEAKAGE =       41435.4648         RIVER LEAKAGE =         555.0635

            TOTAL IN =       66433.0391              TOTAL IN =         555.1594

          OUT:                                     OUT:
          ----                                     ----
             STORAGE =       2.0845E-02               STORAGE =       7.6741E-04
       CONSTANT HEAD =           0.0000         CONSTANT HEAD =           0.0000
               WELLS =           0.0000                 WELLS =           0.0000
       RIVER LEAKAGE =       66439.4062         RIVER LEAKAGE =         555.2262

           TOTAL OUT =       66439.4297             TOTAL OUT =         555.2270

            IN - OUT =          -6.3906              IN - OUT =      -6.7627E-02

 PERCENT DISCREPANCY =          -0.01     PERCENT DISCREPANCY =          -0.01






         TIME SUMMARY AT END OF TIME STEP   88 IN STRESS PERIOD    2
                    SECONDS     MINUTES      HOURS       DAYS        YEARS
                    -----------------------------------------------------------
   TIME STEP LENGTH  86400.      1440.0      24.000      1.0000     2.73785E-03
 STRESS PERIOD TIME 7.60320E+06 1.26720E+05  2112.0      88.000     0.24093    
         TOTAL TIME 7.68960E+06 1.28160E+05  2136.0      89.000     0.24367    
1

 SOLVING FOR HEAD 

 OUTPUT CONTROL FOR STRESS PERIOD    2   TIME STEP   89
    SAVE HEAD FOR ALL LAYERS
    SAVE DRAWDOWN FOR ALL LAYERS
    SAVE BUDGET
    PRINT HEAD FOR ALL LAYERS
    PRINT BUDGET
 UBDSV1 SAVING "         STORAGE" ON UNIT  53 AT TIME STEP 89, STRESS PERIOD   2
 UBDSV2 SAVING "   CONSTANT HEAD" ON UNIT  53 AT TIME STEP 89, STRESS PERIOD   2
 UBDSV1 SAVING "FLOW RIGHT FACE " ON UNIT  53 AT TIME STEP 89, STRESS PERIOD   2
 UBDSV1 SAVING "FLOW FRONT FACE " ON UNIT  53 AT TIME STEP 89, STRESS PERIOD   2
 UBDSV1 SAVING "FLOW LOWER FACE " ON UNIT  53 AT TIME STEP 89, STRESS PERIOD   2
1
              HEAD IN LAYER   1 AT END OF TIME STEP  89 IN STRESS PERIOD    2
  ---------------------------------------------------------------------------

            1           2           3           4           5           6           7           8           9          10
 ........................................................................................................................
   1    9.997       8.887       7.776       6.666       5.556       4.445       3.335       2.225       1.114      3.7015E-03
   2    9.997       8.887       7.776       6.666       5.556       4.445       3.335       2.225       1.114      3.7015E-03
   3    9.997       8.887       7.776       6.666       5.556       4.445       3.335       2.225       1.114      3.7015E-03
   4    9.997       8.887       7.776       6.666       5.556       4.445       3.335       2.225       1.114      3.7015E-03
   5    9.997       8.887       7.776       6.666       5.556       4.445       3.335       2.225       1.114      3.7015E-03
   6    9.997       8.887       7.776       6.666       5.556       4.445       3.335       2.225       1.114      3.7015E-03
   7    9.997       8.887       7.776       6.666       5.556       4.445       3.335       2.225       1.114      3.7015E-03
   8    9.997       8.887       7.776       6.666       5.556       4.445       3.335       2.225       1.114      3.7015E-03
   9    9.997       8.887       7.776       6.666       5.556       4.445       3.335       2.225       1.114      3.7015E-03
  10    9.997       8.887       7.776       6.666       5.556       4.445       3.335       2.225       1.114      3.7015E-03
1
              HEAD IN LAYER   2 AT END OF TIME STEP  89 IN STRESS PERIOD    2
  ---------------------------------------------------------------------------

            1           2           3           4           5           6           7           8           9          10
 ........................................................................................................................
   1    9.997       8.887       7.776       6.666       5.556       4.445       3.335       2.225       1.114      3.7015E-03
   2    9.997       8.887       7.776       6.666       5.556       4.445       3.335       2.225       1.114      3.7015E-03
   3    9.997       8.887       7.776       6.666       5.556       4.445       3.335       2.225       1.114      3.7015E-03
   4    9.997       8.887       7.776       6.666       5.556       4.445       3.335       2.225       1.114      3.7015E-03
   5    9.997       8.887       7.776       6.666       5.556       4.445       3.335       2.225       1.114      3.7015E-03
   6    9.997       8.887       7.776       6.666       5.556       4.445       3.335       2.225       1.114      3.7015E-03
   7    9.997       8.887       7.776       6.666       5.556       4.445       3.335       2.225       1.114      3.7015E-03
   8    9.997       8.887       7.776       6.666       5.556       4.445       3.335       2.225       1.114      3.7015E-03
   9    9.997       8.887       7.776       6.666       5.556       4.445       3.335       2.225       1.114      3.7015E-03
  10    9.997       8.887       7.776       6.666       5.556       4.445       3.335       2.225       1.114      3.7015E-03
1
              HEAD IN LAYER   3 AT END OF TIME STEP  89 IN STRESS PERIOD    2
  ---------------------------------------------------------------------------

            1           2           3           4           5           6           7           8           9          10
 ........................................................................................................................
   1    9.997       8.887       7.776       6.666       5.556       4.445       3.335       2.225       1.114      3.7015E-03
   2    9.997       8.887       7.776       6.666       5.556       4.445       3.335       2.225       1.114      3.7015E-03
   3    9.997       8.887       7.776       6.666       5.556       4.445       3.335       2.225       1.114      3.7015E-03
   4    9.997       8.887       7.776       6.666       5.556       4.445       3.335       2.225       1.114      3.7015E-03
   5    9.997       8.887       7.776       6.666       5.556       4.445       3.335       2.225       1.114      3.7015E-03
   6    9.997       8.887       7.776       6.666       5.556       4.445       3.335       2.225       1.114      3.7015E-03
   7    9.997       8.887       7.776       6.666       5.556       4.445       3.335       2.225       1.114      3.7015E-03
   8    9.997       8.887       7.776       6.666       5.556       4.445       3.335       2.225       1.114      3.7015E-03
   9    9.997       8.887       7.776       6.666       5.556       4.445       3.335       2.225       1.114      3.7015E-03
  10    9.997       8.887       7.776       6.666       5.556       4.445       3.335       2.225       1.114      3.7015E-03

 HEAD WILL BE SAVED ON UNIT   51 AT END OF TIME STEP   89, STRESS PERIOD    2

 DRAWDOWN WILL BE SAVED ON UNIT   52 AT END OF TIME STEP   89, STRESS PERIOD    2
1
  VOLUMETRIC BUDGET FOR ENTIRE MODEL AT END OF TIME STEP   89, STRESS PERIOD   2
  ------------------------------------------------------------------------------

     CUMULATIVE VOLUMES      L**3       RATES FOR THIS TIME STEP      L**3/T
     ------------------                 ------------------------

           IN:                                      IN:
           ---                                      ---
             STORAGE =       24997.6582               STORAGE =       8.6127E-02
       CONSTANT HEAD =           0.0000         CONSTANT HEAD =           0.0000
               WELLS =           0.0000                 WELLS =           0.0000
       RIVER LEAKAGE =       41990.5352         RIVER LEAKAGE =         555.0686

            TOTAL IN =       66988.1953              TOTAL IN =         555.1547

          OUT:                                     OUT:
          ----                                     ----
             STORAGE =       2.1607E-02               STORAGE =       7.6167E-04
       CONSTANT HEAD =           0.0000         CONSTANT HEAD =           0.0000
               WELLS =           0.0000                 WELLS =           0.0000
       RIVER LEAKAGE =       66994.6250         RIVER LEAKAGE =         555.2210

           TOTAL OUT =       66994.6484             TOTAL OUT =         555.2217

            IN - OUT =          -6.4531              IN - OUT =      -6.7017E-02

 PERCENT DISCREPANCY =          -0.01     PERCENT DISCREPANCY =          -0.01






         TIME SUMMARY AT END OF TIME STEP   89 IN STRESS PERIOD    2
                    SECONDS     MINUTES      HOURS       DAYS        YEARS
                    -----------------------------------------------------------
   TIME STEP LENGTH  86400.      1440.0      24.000      1.0000     2.73785E-03
 STRESS PERIOD TIME 7.68960E+06 1.28160E+05  2136.0      89.000     0.24367    
         TOTAL TIME 7.77600E+06 1.29600E+05  2160.0      90.000     0.24641    
1

 SOLVING FOR HEAD 

 OUTPUT CONTROL FOR STRESS PERIOD    2   TIME STEP   90
    SAVE HEAD FOR ALL LAYERS
    SAVE DRAWDOWN FOR ALL LAYERS
    SAVE BUDGET
    PRINT HEAD FOR ALL LAYERS
    PRINT BUDGET
 UBDSV1 SAVING "         STORAGE" ON UNIT  53 AT TIME STEP 90, STRESS PERIOD   2
 UBDSV2 SAVING "   CONSTANT HEAD" ON UNIT  53 AT TIME STEP 90, STRESS PERIOD   2
 UBDSV1 SAVING "FLOW RIGHT FACE " ON UNIT  53 AT TIME STEP 90, STRESS PERIOD   2
 UBDSV1 SAVING "FLOW FRONT FACE " ON UNIT  53 AT TIME STEP 90, STRESS PERIOD   2
 UBDSV1 SAVING "FLOW LOWER FACE " ON UNIT  53 AT TIME STEP 90, STRESS PERIOD   2
1
              HEAD IN LAYER   1 AT END OF TIME STEP  90 IN STRESS PERIOD    2
  ---------------------------------------------------------------------------

            1           2           3           4           5           6           7           8           9          10
 ........................................................................................................................
   1    9.997       8.887       7.776       6.666       5.556       4.445       3.335       2.225       1.114      3.7014E-03
   2    9.997       8.887       7.776       6.666       5.556       4.445       3.335       2.225       1.114      3.7014E-03
   3    9.997       8.887       7.776       6.666       5.556       4.445       3.335       2.225       1.114      3.7014E-03
   4    9.997       8.887       7.776       6.666       5.556       4.445       3.335       2.225       1.114      3.7014E-03
   5    9.997       8.887       7.776       6.666       5.556       4.445       3.335       2.225       1.114      3.7014E-03
   6    9.997       8.887       7.776       6.666       5.556       4.445       3.335       2.225       1.114      3.7014E-03
   7    9.997       8.887       7.776       6.666       5.556       4.445       3.335       2.225       1.114      3.7014E-03
   8    9.997       8.887       7.776       6.666       5.556       4.445       3.335       2.225       1.114      3.7014E-03
   9    9.997       8.887       7.776       6.666       5.556       4.445       3.335       2.225       1.114      3.7014E-03
  10    9.997       8.887       7.776       6.666       5.556       4.445       3.335       2.225       1.114      3.7014E-03
1
              HEAD IN LAYER   2 AT END OF TIME STEP  90 IN STRESS PERIOD    2
  ---------------------------------------------------------------------------

            1           2           3           4           5           6           7           8           9          10
 ........................................................................................................................
   1    9.997       8.887       7.776       6.666       5.556       4.445       3.335       2.225       1.114      3.7014E-03
   2    9.997       8.887       7.776       6.666       5.556       4.445       3.335       2.225       1.114      3.7014E-03
   3    9.997       8.887       7.776       6.666       5.556       4.445       3.335       2.225       1.114      3.7014E-03
   4    9.997       8.887       7.776       6.666       5.556       4.445       3.335       2.225       1.114      3.7014E-03
   5    9.997       8.887       7.776       6.666       5.556       4.445       3.335       2.225       1.114      3.7014E-03
   6    9.997       8.887       7.776       6.666       5.556       4.445       3.335       2.225       1.114      3.7014E-03
   7    9.997       8.887       7.776       6.666       5.556       4.445       3.335       2.225       1.114      3.7014E-03
   8    9.997       8.887       7.776       6.666       5.556       4.445       3.335       2.225       1.114      3.7014E-03
   9    9.997       8.887       7.776       6.666       5.556       4.445       3.335       2.225       1.114      3.7014E-03
  10    9.997       8.887       7.776       6.666       5.556       4.445       3.335       2.225       1.114      3.7014E-03
1
              HEAD IN LAYER   3 AT END OF TIME STEP  90 IN STRESS PERIOD    2
  ---------------------------------------------------------------------------

            1           2           3           4           5           6           7           8           9          10
 ........................................................................................................................
   1    9.997       8.887       7.776       6.666       5.556       4.445       3.335       2.225       1.114      3.7014E-03
   2    9.997       8.887       7.776       6.666       5.556       4.445       3.335       2.225       1.114      3.7014E-03
   3    9.997       8.887       7.776       6.666       5.556       4.445       3.335       2.225       1.114      3.7014E-03
   4    9.997       8.887       7.776       6.666       5.556       4.445       3.335       2.225       1.114      3.7014E-03
   5    9.997       8.887       7.776       6.666       5.556       4.445       3.335       2.225       1.114      3.7014E-03
   6    9.997       8.887       7.776       6.666       5.556       4.445       3.335       2.225       1.114      3.7014E-03
   7    9.997       8.887       7.776       6.666       5.556       4.445       3.335       2.225       1.114      3.7014E-03
   8    9.997       8.887       7.776       6.666       5.556       4.445       3.335       2.225       1.114      3.7014E-03
   9    9.997       8.887       7.776       6.666       5.556       4.445       3.335       2.225       1.114      3.7014E-03
  10    9.997       8.887       7.776       6.666       5.556       4.445       3.335       2.225       1.114      3.7014E-03

 HEAD WILL BE SAVED ON UNIT   51 AT END OF TIME STEP   90, STRESS PERIOD    2

 DRAWDOWN WILL BE SAVED ON UNIT   52 AT END OF TIME STEP   90, STRESS PERIOD    2
1
  VOLUMETRIC BUDGET FOR ENTIRE MODEL AT END OF TIME STEP   90, STRESS PERIOD   2
  ------------------------------------------------------------------------------

     CUMULATIVE VOLUMES      L**3       RATES FOR THIS TIME STEP      L**3/T
     ------------------                 ------------------------

           IN:                                      IN:
           ---                                      ---
             STORAGE =       24997.7344               STORAGE =       7.6654E-02
       CONSTANT HEAD =           0.0000         CONSTANT HEAD =           0.0000
               WELLS =           0.0000                 WELLS =           0.0000
       RIVER LEAKAGE =       42545.6094         RIVER LEAKAGE =         555.0734

            TOTAL IN =       67543.3438              TOTAL IN =         555.1500

          OUT:                                     OUT:
          ----                                     ----
             STORAGE =       2.2363E-02               STORAGE =       7.5639E-04
       CONSTANT HEAD =           0.0000         CONSTANT HEAD =           0.0000
               WELLS =           0.0000                 WELLS =           0.0000
       RIVER LEAKAGE =       67549.8438         RIVER LEAKAGE =         555.2163

           TOTAL OUT =       67549.8672             TOTAL OUT =         555.2170

            IN - OUT =          -6.5234              IN - OUT =      -6.7017E-02

 PERCENT DISCREPANCY =          -0.01     PERCENT DISCREPANCY =          -0.01






         TIME SUMMARY AT END OF TIME STEP   90 IN STRESS PERIOD    2
                    SECONDS     MINUTES      HOURS       DAYS        YEARS
                    -----------------------------------------------------------
   TIME STEP LENGTH  86400.      1440.0      24.000      1.0000     2.73785E-03
 STRESS PERIOD TIME 7.77600E+06 1.29600E+05  2160.0      90.000     0.24641    
         TOTAL TIME 7.86240E+06 1.31040E+05  2184.0      91.000     0.24914    
1

 SOLVING FOR HEAD 

 OUTPUT CONTROL FOR STRESS PERIOD    2   TIME STEP   91
    SAVE HEAD FOR ALL LAYERS
    SAVE DRAWDOWN FOR ALL LAYERS
    SAVE BUDGET
    PRINT HEAD FOR ALL LAYERS
    PRINT BUDGET
 UBDSV1 SAVING "         STORAGE" ON UNIT  53 AT TIME STEP 91, STRESS PERIOD   2
 UBDSV2 SAVING "   CONSTANT HEAD" ON UNIT  53 AT TIME STEP 91, STRESS PERIOD   2
 UBDSV1 SAVING "FLOW RIGHT FACE " ON UNIT  53 AT TIME STEP 91, STRESS PERIOD   2
 UBDSV1 SAVING "FLOW FRONT FACE " ON UNIT  53 AT TIME STEP 91, STRESS PERIOD   2
 UBDSV1 SAVING "FLOW LOWER FACE " ON UNIT  53 AT TIME STEP 91, STRESS PERIOD   2
1
              HEAD IN LAYER   1 AT END OF TIME STEP  91 IN STRESS PERIOD    2
  ---------------------------------------------------------------------------

            1           2           3           4           5           6           7           8           9          10
 ........................................................................................................................
   1    9.997       8.887       7.776       6.666       5.556       4.445       3.335       2.225       1.114      3.7014E-03
   2    9.997       8.887       7.776       6.666       5.556       4.445       3.335       2.225       1.114      3.7014E-03
   3    9.997       8.887       7.776       6.666       5.556       4.445       3.335       2.225       1.114      3.7014E-03
   4    9.997       8.887       7.776       6.666       5.556       4.445       3.335       2.225       1.114      3.7014E-03
   5    9.997       8.887       7.776       6.666       5.556       4.445       3.335       2.225       1.114      3.7014E-03
   6    9.997       8.887       7.776       6.666       5.556       4.445       3.335       2.225       1.114      3.7014E-03
   7    9.997       8.887       7.776       6.666       5.556       4.445       3.335       2.225       1.114      3.7014E-03
   8    9.997       8.887       7.776       6.666       5.556       4.445       3.335       2.225       1.114      3.7014E-03
   9    9.997       8.887       7.776       6.666       5.556       4.445       3.335       2.225       1.114      3.7014E-03
  10    9.997       8.887       7.776       6.666       5.556       4.445       3.335       2.225       1.114      3.7014E-03
1
              HEAD IN LAYER   2 AT END OF TIME STEP  91 IN STRESS PERIOD    2
  ---------------------------------------------------------------------------

            1           2           3           4           5           6           7           8           9          10
 ........................................................................................................................
   1    9.997       8.887       7.776       6.666       5.556       4.445       3.335       2.225       1.114      3.7014E-03
   2    9.997       8.887       7.776       6.666       5.556       4.445       3.335       2.225       1.114      3.7014E-03
   3    9.997       8.887       7.776       6.666       5.556       4.445       3.335       2.225       1.114      3.7014E-03
   4    9.997       8.887       7.776       6.666       5.556       4.445       3.335       2.225       1.114      3.7014E-03
   5    9.997       8.887       7.776       6.666       5.556       4.445       3.335       2.225       1.114      3.7014E-03
   6    9.997       8.887       7.776       6.666       5.556       4.445       3.335       2.225       1.114      3.7014E-03
   7    9.997       8.887       7.776       6.666       5.556       4.445       3.335       2.225       1.114      3.7014E-03
   8    9.997       8.887       7.776       6.666       5.556       4.445       3.335       2.225       1.114      3.7014E-03
   9    9.997       8.887       7.776       6.666       5.556       4.445       3.335       2.225       1.114      3.7014E-03
  10    9.997       8.887       7.776       6.666       5.556       4.445       3.335       2.225       1.114      3.7014E-03
1
              HEAD IN LAYER   3 AT END OF TIME STEP  91 IN STRESS PERIOD    2
  ---------------------------------------------------------------------------

            1           2           3           4           5           6           7           8           9          10
 ........................................................................................................................
   1    9.997       8.887       7.776       6.666       5.556       4.445       3.335       2.225       1.114      3.7014E-03
   2    9.997       8.887       7.776       6.666       5.556       4.445       3.335       2.225       1.114      3.7014E-03
   3    9.997       8.887       7.776       6.666       5.556       4.445       3.335       2.225       1.114      3.7014E-03
   4    9.997       8.887       7.776       6.666       5.556       4.445       3.335       2.225       1.114      3.7014E-03
   5    9.997       8.887       7.776       6.666       5.556       4.445       3.335       2.225       1.114      3.7014E-03
   6    9.997       8.887       7.776       6.666       5.556       4.445       3.335       2.225       1.114      3.7014E-03
   7    9.997       8.887       7.776       6.666       5.556       4.445       3.335       2.225       1.114      3.7014E-03
   8    9.997       8.887       7.776       6.666       5.556       4.445       3.335       2.225       1.114      3.7014E-03
   9    9.997       8.887       7.776       6.666       5.556       4.445       3.335       2.225       1.114      3.7014E-03
  10    9.997       8.887       7.776       6.666       5.556       4.445       3.335       2.225       1.114      3.7014E-03

 HEAD WILL BE SAVED ON UNIT   51 AT END OF TIME STEP   91, STRESS PERIOD    2

 DRAWDOWN WILL BE SAVED ON UNIT   52 AT END OF TIME STEP   91, STRESS PERIOD    2
1
  VOLUMETRIC BUDGET FOR ENTIRE MODEL AT END OF TIME STEP   91, STRESS PERIOD   2
  ------------------------------------------------------------------------------

     CUMULATIVE VOLUMES      L**3       RATES FOR THIS TIME STEP      L**3/T
     ------------------                 ------------------------

           IN:                                      IN:
           ---                                      ---
             STORAGE =       24997.8027               STORAGE =       6.8031E-02
       CONSTANT HEAD =           0.0000         CONSTANT HEAD =           0.0000
               WELLS =           0.0000                 WELLS =           0.0000
       RIVER LEAKAGE =       43100.6875         RIVER LEAKAGE =         555.0774

            TOTAL IN =       68098.4922              TOTAL IN =         555.1454

          OUT:                                     OUT:
          ----                                     ----
             STORAGE =       2.3115E-02               STORAGE =       7.5198E-04
       CONSTANT HEAD =           0.0000         CONSTANT HEAD =           0.0000
               WELLS =           0.0000                 WELLS =           0.0000
       RIVER LEAKAGE =       68105.0547         RIVER LEAKAGE =         555.2123

           TOTAL OUT =       68105.0781             TOTAL OUT =         555.2131

            IN - OUT =          -6.5859              IN - OUT =      -6.7627E-02

 PERCENT DISCREPANCY =          -0.01     PERCENT DISCREPANCY =          -0.01






         TIME SUMMARY AT END OF TIME STEP   91 IN STRESS PERIOD    2
                    SECONDS     MINUTES      HOURS       DAYS        YEARS
                    -----------------------------------------------------------
   TIME STEP LENGTH  86400.      1440.0      24.000      1.0000     2.73785E-03
 STRESS PERIOD TIME 7.86240E+06 1.31040E+05  2184.0      91.000     0.24914    
         TOTAL TIME 7.94880E+06 1.32480E+05  2208.0      92.000     0.25188    
1

 SOLVING FOR HEAD 

 OUTPUT CONTROL FOR STRESS PERIOD    2   TIME STEP   92
    SAVE HEAD FOR ALL LAYERS
    SAVE DRAWDOWN FOR ALL LAYERS
    SAVE BUDGET
    PRINT HEAD FOR ALL LAYERS
    PRINT BUDGET
 UBDSV1 SAVING "         STORAGE" ON UNIT  53 AT TIME STEP 92, STRESS PERIOD   2
 UBDSV2 SAVING "   CONSTANT HEAD" ON UNIT  53 AT TIME STEP 92, STRESS PERIOD   2
 UBDSV1 SAVING "FLOW RIGHT FACE " ON UNIT  53 AT TIME STEP 92, STRESS PERIOD   2
 UBDSV1 SAVING "FLOW FRONT FACE " ON UNIT  53 AT TIME STEP 92, STRESS PERIOD   2
 UBDSV1 SAVING "FLOW LOWER FACE " ON UNIT  53 AT TIME STEP 92, STRESS PERIOD   2
1
              HEAD IN LAYER   1 AT END OF TIME STEP  92 IN STRESS PERIOD    2
  ---------------------------------------------------------------------------

            1           2           3           4           5           6           7           8           9          10
 ........................................................................................................................
   1    9.997       8.887       7.776       6.666       5.556       4.445       3.335       2.225       1.114      3.7014E-03
   2    9.997       8.887       7.776       6.666       5.556       4.445       3.335       2.225       1.114      3.7014E-03
   3    9.997       8.887       7.776       6.666       5.556       4.445       3.335       2.225       1.114      3.7014E-03
   4    9.997       8.887       7.776       6.666       5.556       4.445       3.335       2.225       1.114      3.7014E-03
   5    9.997       8.887       7.776       6.666       5.556       4.445       3.335       2.225       1.114      3.7014E-03
   6    9.997       8.887       7.776       6.666       5.556       4.445       3.335       2.225       1.114      3.7014E-03
   7    9.997       8.887       7.776       6.666       5.556       4.445       3.335       2.225       1.114      3.7014E-03
   8    9.997       8.887       7.776       6.666       5.556       4.445       3.335       2.225       1.114      3.7014E-03
   9    9.997       8.887       7.776       6.666       5.556       4.445       3.335       2.225       1.114      3.7014E-03
  10    9.997       8.887       7.776       6.666       5.556       4.445       3.335       2.225       1.114      3.7014E-03
1
              HEAD IN LAYER   2 AT END OF TIME STEP  92 IN STRESS PERIOD    2
  ---------------------------------------------------------------------------

            1           2           3           4           5           6           7           8           9          10
 ........................................................................................................................
   1    9.997       8.887       7.776       6.666       5.556       4.445       3.335       2.225       1.114      3.7014E-03
   2    9.997       8.887       7.776       6.666       5.556       4.445       3.335       2.225       1.114      3.7014E-03
   3    9.997       8.887       7.776       6.666       5.556       4.445       3.335       2.225       1.114      3.7014E-03
   4    9.997       8.887       7.776       6.666       5.556       4.445       3.335       2.225       1.114      3.7014E-03
   5    9.997       8.887       7.776       6.666       5.556       4.445       3.335       2.225       1.114      3.7014E-03
   6    9.997       8.887       7.776       6.666       5.556       4.445       3.335       2.225       1.114      3.7014E-03
   7    9.997       8.887       7.776       6.666       5.556       4.445       3.335       2.225       1.114      3.7014E-03
   8    9.997       8.887       7.776       6.666       5.556       4.445       3.335       2.225       1.114      3.7014E-03
   9    9.997       8.887       7.776       6.666       5.556       4.445       3.335       2.225       1.114      3.7014E-03
  10    9.997       8.887       7.776       6.666       5.556       4.445       3.335       2.225       1.114      3.7014E-03
1
              HEAD IN LAYER   3 AT END OF TIME STEP  92 IN STRESS PERIOD    2
  ---------------------------------------------------------------------------

            1           2           3           4           5           6           7           8           9          10
 ........................................................................................................................
   1    9.997       8.887       7.776       6.666       5.556       4.445       3.335       2.225       1.114      3.7014E-03
   2    9.997       8.887       7.776       6.666       5.556       4.445       3.335       2.225       1.114      3.7014E-03
   3    9.997       8.887       7.776       6.666       5.556       4.445       3.335       2.225       1.114      3.7014E-03
   4    9.997       8.887       7.776       6.666       5.556       4.445       3.335       2.225       1.114      3.7014E-03
   5    9.997       8.887       7.776       6.666       5.556       4.445       3.335       2.225       1.114      3.7014E-03
   6    9.997       8.887       7.776       6.666       5.556       4.445       3.335       2.225       1.114      3.7014E-03
   7    9.997       8.887       7.776       6.666       5.556       4.445       3.335       2.225       1.114      3.7014E-03
   8    9.997       8.887       7.776       6.666       5.556       4.445       3.335       2.225       1.114      3.7014E-03
   9    9.997       8.887       7.776       6.666       5.556       4.445       3.335       2.225       1.114      3.7014E-03
  10    9.997       8.887       7.776       6.666       5.556       4.445       3.335       2.225       1.114      3.7014E-03

 HEAD WILL BE SAVED ON UNIT   51 AT END OF TIME STEP   92, STRESS PERIOD    2

 DRAWDOWN WILL BE SAVED ON UNIT   52 AT END OF TIME STEP   92, STRESS PERIOD    2
1
  VOLUMETRIC BUDGET FOR ENTIRE MODEL AT END OF TIME STEP   92, STRESS PERIOD   2
  ------------------------------------------------------------------------------

     CUMULATIVE VOLUMES      L**3       RATES FOR THIS TIME STEP      L**3/T
     ------------------                 ------------------------

           IN:                                      IN:
           ---                                      ---
             STORAGE =       24997.8633               STORAGE =       6.1068E-02
       CONSTANT HEAD =           0.0000         CONSTANT HEAD =           0.0000
               WELLS =           0.0000                 WELLS =           0.0000
       RIVER LEAKAGE =       43655.7695         RIVER LEAKAGE =         555.0811

            TOTAL IN =       68653.6328              TOTAL IN =         555.1422

          OUT:                                     OUT:
          ----                                     ----
             STORAGE =       2.3863E-02               STORAGE =       7.4811E-04
       CONSTANT HEAD =           0.0000         CONSTANT HEAD =           0.0000
               WELLS =           0.0000                 WELLS =           0.0000
       RIVER LEAKAGE =       68660.2656         RIVER LEAKAGE =         555.2088

           TOTAL OUT =       68660.2891             TOTAL OUT =         555.2095

            IN - OUT =          -6.6562              IN - OUT =      -6.7383E-02

 PERCENT DISCREPANCY =          -0.01     PERCENT DISCREPANCY =          -0.01






         TIME SUMMARY AT END OF TIME STEP   92 IN STRESS PERIOD    2
                    SECONDS     MINUTES      HOURS       DAYS        YEARS
                    -----------------------------------------------------------
   TIME STEP LENGTH  86400.      1440.0      24.000      1.0000     2.73785E-03
 STRESS PERIOD TIME 7.94880E+06 1.32480E+05  2208.0      92.000     0.25188    
         TOTAL TIME 8.03520E+06 1.33920E+05  2232.0      93.000     0.25462    
1

 SOLVING FOR HEAD 

 OUTPUT CONTROL FOR STRESS PERIOD    2   TIME STEP   93
    SAVE HEAD FOR ALL LAYERS
    SAVE DRAWDOWN FOR ALL LAYERS
    SAVE BUDGET
    PRINT HEAD FOR ALL LAYERS
    PRINT BUDGET
 UBDSV1 SAVING "         STORAGE" ON UNIT  53 AT TIME STEP 93, STRESS PERIOD   2
 UBDSV2 SAVING "   CONSTANT HEAD" ON UNIT  53 AT TIME STEP 93, STRESS PERIOD   2
 UBDSV1 SAVING "FLOW RIGHT FACE " ON UNIT  53 AT TIME STEP 93, STRESS PERIOD   2
 UBDSV1 SAVING "FLOW FRONT FACE " ON UNIT  53 AT TIME STEP 93, STRESS PERIOD   2
 UBDSV1 SAVING "FLOW LOWER FACE " ON UNIT  53 AT TIME STEP 93, STRESS PERIOD   2
1
              HEAD IN LAYER   1 AT END OF TIME STEP  93 IN STRESS PERIOD    2
  ---------------------------------------------------------------------------

            1           2           3           4           5           6           7           8           9          10
 ........................................................................................................................
   1    9.997       8.887       7.776       6.666       5.556       4.445       3.335       2.225       1.114      3.7014E-03
   2    9.997       8.887       7.776       6.666       5.556       4.445       3.335       2.225       1.114      3.7014E-03
   3    9.997       8.887       7.776       6.666       5.556       4.445       3.335       2.225       1.114      3.7014E-03
   4    9.997       8.887       7.776       6.666       5.556       4.445       3.335       2.225       1.114      3.7014E-03
   5    9.997       8.887       7.776       6.666       5.556       4.445       3.335       2.225       1.114      3.7014E-03
   6    9.997       8.887       7.776       6.666       5.556       4.445       3.335       2.225       1.114      3.7014E-03
   7    9.997       8.887       7.776       6.666       5.556       4.445       3.335       2.225       1.114      3.7014E-03
   8    9.997       8.887       7.776       6.666       5.556       4.445       3.335       2.225       1.114      3.7014E-03
   9    9.997       8.887       7.776       6.666       5.556       4.445       3.335       2.225       1.114      3.7014E-03
  10    9.997       8.887       7.776       6.666       5.556       4.445       3.335       2.225       1.114      3.7014E-03
1
              HEAD IN LAYER   2 AT END OF TIME STEP  93 IN STRESS PERIOD    2
  ---------------------------------------------------------------------------

            1           2           3           4           5           6           7           8           9          10
 ........................................................................................................................
   1    9.997       8.887       7.776       6.666       5.556       4.445       3.335       2.225       1.114      3.7014E-03
   2    9.997       8.887       7.776       6.666       5.556       4.445       3.335       2.225       1.114      3.7014E-03
   3    9.997       8.887       7.776       6.666       5.556       4.445       3.335       2.225       1.114      3.7014E-03
   4    9.997       8.887       7.776       6.666       5.556       4.445       3.335       2.225       1.114      3.7014E-03
   5    9.997       8.887       7.776       6.666       5.556       4.445       3.335       2.225       1.114      3.7014E-03
   6    9.997       8.887       7.776       6.666       5.556       4.445       3.335       2.225       1.114      3.7014E-03
   7    9.997       8.887       7.776       6.666       5.556       4.445       3.335       2.225       1.114      3.7014E-03
   8    9.997       8.887       7.776       6.666       5.556       4.445       3.335       2.225       1.114      3.7014E-03
   9    9.997       8.887       7.776       6.666       5.556       4.445       3.335       2.225       1.114      3.7014E-03
  10    9.997       8.887       7.776       6.666       5.556       4.445       3.335       2.225       1.114      3.7014E-03
1
              HEAD IN LAYER   3 AT END OF TIME STEP  93 IN STRESS PERIOD    2
  ---------------------------------------------------------------------------

            1           2           3           4           5           6           7           8           9          10
 ........................................................................................................................
   1    9.997       8.887       7.776       6.666       5.556       4.445       3.335       2.225       1.114      3.7014E-03
   2    9.997       8.887       7.776       6.666       5.556       4.445       3.335       2.225       1.114      3.7014E-03
   3    9.997       8.887       7.776       6.666       5.556       4.445       3.335       2.225       1.114      3.7014E-03
   4    9.997       8.887       7.776       6.666       5.556       4.445       3.335       2.225       1.114      3.7014E-03
   5    9.997       8.887       7.776       6.666       5.556       4.445       3.335       2.225       1.114      3.7014E-03
   6    9.997       8.887       7.776       6.666       5.556       4.445       3.335       2.225       1.114      3.7014E-03
   7    9.997       8.887       7.776       6.666       5.556       4.445       3.335       2.225       1.114      3.7014E-03
   8    9.997       8.887       7.776       6.666       5.556       4.445       3.335       2.225       1.114      3.7014E-03
   9    9.997       8.887       7.776       6.666       5.556       4.445       3.335       2.225       1.114      3.7014E-03
  10    9.997       8.887       7.776       6.666       5.556       4.445       3.335       2.225       1.114      3.7014E-03

 HEAD WILL BE SAVED ON UNIT   51 AT END OF TIME STEP   93, STRESS PERIOD    2

 DRAWDOWN WILL BE SAVED ON UNIT   52 AT END OF TIME STEP   93, STRESS PERIOD    2
1
  VOLUMETRIC BUDGET FOR ENTIRE MODEL AT END OF TIME STEP   93, STRESS PERIOD   2
  ------------------------------------------------------------------------------

     CUMULATIVE VOLUMES      L**3       RATES FOR THIS TIME STEP      L**3/T
     ------------------                 ------------------------

           IN:                                      IN:
           ---                                      ---
             STORAGE =       24997.9180               STORAGE =       5.3923E-02
       CONSTANT HEAD =           0.0000         CONSTANT HEAD =           0.0000
               WELLS =           0.0000                 WELLS =           0.0000
       RIVER LEAKAGE =       44210.8555         RIVER LEAKAGE =         555.0844

            TOTAL IN =       69208.7734              TOTAL IN =         555.1383

          OUT:                                     OUT:
          ----                                     ----
             STORAGE =       2.4608E-02               STORAGE =       7.4435E-04
       CONSTANT HEAD =           0.0000         CONSTANT HEAD =           0.0000
               WELLS =           0.0000                 WELLS =           0.0000
       RIVER LEAKAGE =       69215.4688         RIVER LEAKAGE =         555.2054

           TOTAL OUT =       69215.4922             TOTAL OUT =         555.2062

            IN - OUT =          -6.7188              IN - OUT =      -6.7871E-02

 PERCENT DISCREPANCY =          -0.01     PERCENT DISCREPANCY =          -0.01






         TIME SUMMARY AT END OF TIME STEP   93 IN STRESS PERIOD    2
                    SECONDS     MINUTES      HOURS       DAYS        YEARS
                    -----------------------------------------------------------
   TIME STEP LENGTH  86400.      1440.0      24.000      1.0000     2.73785E-03
 STRESS PERIOD TIME 8.03520E+06 1.33920E+05  2232.0      93.000     0.25462    
         TOTAL TIME 8.12160E+06 1.35360E+05  2256.0      94.000     0.25736    
1

 SOLVING FOR HEAD 

 OUTPUT CONTROL FOR STRESS PERIOD    2   TIME STEP   94
    SAVE HEAD FOR ALL LAYERS
    SAVE DRAWDOWN FOR ALL LAYERS
    SAVE BUDGET
    PRINT HEAD FOR ALL LAYERS
    PRINT BUDGET
 UBDSV1 SAVING "         STORAGE" ON UNIT  53 AT TIME STEP 94, STRESS PERIOD   2
 UBDSV2 SAVING "   CONSTANT HEAD" ON UNIT  53 AT TIME STEP 94, STRESS PERIOD   2
 UBDSV1 SAVING "FLOW RIGHT FACE " ON UNIT  53 AT TIME STEP 94, STRESS PERIOD   2
 UBDSV1 SAVING "FLOW FRONT FACE " ON UNIT  53 AT TIME STEP 94, STRESS PERIOD   2
 UBDSV1 SAVING "FLOW LOWER FACE " ON UNIT  53 AT TIME STEP 94, STRESS PERIOD   2
1
              HEAD IN LAYER   1 AT END OF TIME STEP  94 IN STRESS PERIOD    2
  ---------------------------------------------------------------------------

            1           2           3           4           5           6           7           8           9          10
 ........................................................................................................................
   1    9.997       8.887       7.776       6.666       5.556       4.445       3.335       2.225       1.114      3.7014E-03
   2    9.997       8.887       7.776       6.666       5.556       4.445       3.335       2.225       1.114      3.7014E-03
   3    9.997       8.887       7.776       6.666       5.556       4.445       3.335       2.225       1.114      3.7014E-03
   4    9.997       8.887       7.776       6.666       5.556       4.445       3.335       2.225       1.114      3.7014E-03
   5    9.997       8.887       7.776       6.666       5.556       4.445       3.335       2.225       1.114      3.7014E-03
   6    9.997       8.887       7.776       6.666       5.556       4.445       3.335       2.225       1.114      3.7014E-03
   7    9.997       8.887       7.776       6.666       5.556       4.445       3.335       2.225       1.114      3.7014E-03
   8    9.997       8.887       7.776       6.666       5.556       4.445       3.335       2.225       1.114      3.7014E-03
   9    9.997       8.887       7.776       6.666       5.556       4.445       3.335       2.225       1.114      3.7014E-03
  10    9.997       8.887       7.776       6.666       5.556       4.445       3.335       2.225       1.114      3.7014E-03
1
              HEAD IN LAYER   2 AT END OF TIME STEP  94 IN STRESS PERIOD    2
  ---------------------------------------------------------------------------

            1           2           3           4           5           6           7           8           9          10
 ........................................................................................................................
   1    9.997       8.887       7.776       6.666       5.556       4.445       3.335       2.225       1.114      3.7014E-03
   2    9.997       8.887       7.776       6.666       5.556       4.445       3.335       2.225       1.114      3.7014E-03
   3    9.997       8.887       7.776       6.666       5.556       4.445       3.335       2.225       1.114      3.7014E-03
   4    9.997       8.887       7.776       6.666       5.556       4.445       3.335       2.225       1.114      3.7014E-03
   5    9.997       8.887       7.776       6.666       5.556       4.445       3.335       2.225       1.114      3.7014E-03
   6    9.997       8.887       7.776       6.666       5.556       4.445       3.335       2.225       1.114      3.7014E-03
   7    9.997       8.887       7.776       6.666       5.556       4.445       3.335       2.225       1.114      3.7014E-03
   8    9.997       8.887       7.776       6.666       5.556       4.445       3.335       2.225       1.114      3.7014E-03
   9    9.997       8.887       7.776       6.666       5.556       4.445       3.335       2.225       1.114      3.7014E-03
  10    9.997       8.887       7.776       6.666       5.556       4.445       3.335       2.225       1.114      3.7014E-03
1
              HEAD IN LAYER   3 AT END OF TIME STEP  94 IN STRESS PERIOD    2
  ---------------------------------------------------------------------------

            1           2           3           4           5           6           7           8           9          10
 ........................................................................................................................
   1    9.997       8.887       7.776       6.666       5.556       4.445       3.335       2.225       1.114      3.7013E-03
   2    9.997       8.887       7.776       6.666       5.556       4.445       3.335       2.225       1.114      3.7013E-03
   3    9.997       8.887       7.776       6.666       5.556       4.445       3.335       2.225       1.114      3.7013E-03
   4    9.997       8.887       7.776       6.666       5.556       4.445       3.335       2.225       1.114      3.7013E-03
   5    9.997       8.887       7.776       6.666       5.556       4.445       3.335       2.225       1.114      3.7013E-03
   6    9.997       8.887       7.776       6.666       5.556       4.445       3.335       2.225       1.114      3.7013E-03
   7    9.997       8.887       7.776       6.666       5.556       4.445       3.335       2.225       1.114      3.7013E-03
   8    9.997       8.887       7.776       6.666       5.556       4.445       3.335       2.225       1.114      3.7013E-03
   9    9.997       8.887       7.776       6.666       5.556       4.445       3.335       2.225       1.114      3.7013E-03
  10    9.997       8.887       7.776       6.666       5.556       4.445       3.335       2.225       1.114      3.7013E-03

 HEAD WILL BE SAVED ON UNIT   51 AT END OF TIME STEP   94, STRESS PERIOD    2

 DRAWDOWN WILL BE SAVED ON UNIT   52 AT END OF TIME STEP   94, STRESS PERIOD    2
1
  VOLUMETRIC BUDGET FOR ENTIRE MODEL AT END OF TIME STEP   94, STRESS PERIOD   2
  ------------------------------------------------------------------------------

     CUMULATIVE VOLUMES      L**3       RATES FOR THIS TIME STEP      L**3/T
     ------------------                 ------------------------

           IN:                                      IN:
           ---                                      ---
             STORAGE =       24997.9668               STORAGE =       4.8215E-02
       CONSTANT HEAD =           0.0000         CONSTANT HEAD =           0.0000
               WELLS =           0.0000                 WELLS =           0.0000
       RIVER LEAKAGE =       44765.9414         RIVER LEAKAGE =         555.0873

            TOTAL IN =       69763.9062              TOTAL IN =         555.1355

          OUT:                                     OUT:
          ----                                     ----
             STORAGE =       2.5349E-02               STORAGE =       7.4110E-04
       CONSTANT HEAD =           0.0000         CONSTANT HEAD =           0.0000
               WELLS =           0.0000                 WELLS =           0.0000
       RIVER LEAKAGE =       69770.6719         RIVER LEAKAGE =         555.2025

           TOTAL OUT =       69770.6953             TOTAL OUT =         555.2032

            IN - OUT =          -6.7891              IN - OUT =      -6.7749E-02

 PERCENT DISCREPANCY =          -0.01     PERCENT DISCREPANCY =          -0.01






         TIME SUMMARY AT END OF TIME STEP   94 IN STRESS PERIOD    2
                    SECONDS     MINUTES      HOURS       DAYS        YEARS
                    -----------------------------------------------------------
   TIME STEP LENGTH  86400.      1440.0      24.000      1.0000     2.73785E-03
 STRESS PERIOD TIME 8.12160E+06 1.35360E+05  2256.0      94.000     0.25736    
         TOTAL TIME 8.20800E+06 1.36800E+05  2280.0      95.000     0.26010    
1

 SOLVING FOR HEAD 

 OUTPUT CONTROL FOR STRESS PERIOD    2   TIME STEP   95
    SAVE HEAD FOR ALL LAYERS
    SAVE DRAWDOWN FOR ALL LAYERS
    SAVE BUDGET
    PRINT HEAD FOR ALL LAYERS
    PRINT BUDGET
 UBDSV1 SAVING "         STORAGE" ON UNIT  53 AT TIME STEP 95, STRESS PERIOD   2
 UBDSV2 SAVING "   CONSTANT HEAD" ON UNIT  53 AT TIME STEP 95, STRESS PERIOD   2
 UBDSV1 SAVING "FLOW RIGHT FACE " ON UNIT  53 AT TIME STEP 95, STRESS PERIOD   2
 UBDSV1 SAVING "FLOW FRONT FACE " ON UNIT  53 AT TIME STEP 95, STRESS PERIOD   2
 UBDSV1 SAVING "FLOW LOWER FACE " ON UNIT  53 AT TIME STEP 95, STRESS PERIOD   2
1
              HEAD IN LAYER   1 AT END OF TIME STEP  95 IN STRESS PERIOD    2
  ---------------------------------------------------------------------------

            1           2           3           4           5           6           7           8           9          10
 ........................................................................................................................
   1    9.997       8.887       7.776       6.666       5.556       4.445       3.335       2.224       1.114      3.7013E-03
   2    9.997       8.887       7.776       6.666       5.556       4.445       3.335       2.224       1.114      3.7013E-03
   3    9.997       8.887       7.776       6.666       5.556       4.445       3.335       2.224       1.114      3.7013E-03
   4    9.997       8.887       7.776       6.666       5.556       4.445       3.335       2.224       1.114      3.7013E-03
   5    9.997       8.887       7.776       6.666       5.556       4.445       3.335       2.224       1.114      3.7013E-03
   6    9.997       8.887       7.776       6.666       5.556       4.445       3.335       2.224       1.114      3.7013E-03
   7    9.997       8.887       7.776       6.666       5.556       4.445       3.335       2.224       1.114      3.7013E-03
   8    9.997       8.887       7.776       6.666       5.556       4.445       3.335       2.224       1.114      3.7013E-03
   9    9.997       8.887       7.776       6.666       5.556       4.445       3.335       2.224       1.114      3.7013E-03
  10    9.997       8.887       7.776       6.666       5.556       4.445       3.335       2.224       1.114      3.7013E-03
1
              HEAD IN LAYER   2 AT END OF TIME STEP  95 IN STRESS PERIOD    2
  ---------------------------------------------------------------------------

            1           2           3           4           5           6           7           8           9          10
 ........................................................................................................................
   1    9.997       8.887       7.776       6.666       5.556       4.445       3.335       2.224       1.114      3.7013E-03
   2    9.997       8.887       7.776       6.666       5.556       4.445       3.335       2.224       1.114      3.7013E-03
   3    9.997       8.887       7.776       6.666       5.556       4.445       3.335       2.224       1.114      3.7013E-03
   4    9.997       8.887       7.776       6.666       5.556       4.445       3.335       2.224       1.114      3.7013E-03
   5    9.997       8.887       7.776       6.666       5.556       4.445       3.335       2.224       1.114      3.7013E-03
   6    9.997       8.887       7.776       6.666       5.556       4.445       3.335       2.224       1.114      3.7013E-03
   7    9.997       8.887       7.776       6.666       5.556       4.445       3.335       2.224       1.114      3.7013E-03
   8    9.997       8.887       7.776       6.666       5.556       4.445       3.335       2.224       1.114      3.7013E-03
   9    9.997       8.887       7.776       6.666       5.556       4.445       3.335       2.224       1.114      3.7013E-03
  10    9.997       8.887       7.776       6.666       5.556       4.445       3.335       2.224       1.114      3.7013E-03
1
              HEAD IN LAYER   3 AT END OF TIME STEP  95 IN STRESS PERIOD    2
  ---------------------------------------------------------------------------

            1           2           3           4           5           6           7           8           9          10
 ........................................................................................................................
   1    9.997       8.887       7.776       6.666       5.556       4.445       3.335       2.224       1.114      3.7013E-03
   2    9.997       8.887       7.776       6.666       5.556       4.445       3.335       2.224       1.114      3.7013E-03
   3    9.997       8.887       7.776       6.666       5.556       4.445       3.335       2.224       1.114      3.7013E-03
   4    9.997       8.887       7.776       6.666       5.556       4.445       3.335       2.224       1.114      3.7013E-03
   5    9.997       8.887       7.776       6.666       5.556       4.445       3.335       2.224       1.114      3.7013E-03
   6    9.997       8.887       7.776       6.666       5.556       4.445       3.335       2.224       1.114      3.7013E-03
   7    9.997       8.887       7.776       6.666       5.556       4.445       3.335       2.224       1.114      3.7013E-03
   8    9.997       8.887       7.776       6.666       5.556       4.445       3.335       2.224       1.114      3.7013E-03
   9    9.997       8.887       7.776       6.666       5.556       4.445       3.335       2.224       1.114      3.7013E-03
  10    9.997       8.887       7.776       6.666       5.556       4.445       3.335       2.224       1.114      3.7013E-03

 HEAD WILL BE SAVED ON UNIT   51 AT END OF TIME STEP   95, STRESS PERIOD    2

 DRAWDOWN WILL BE SAVED ON UNIT   52 AT END OF TIME STEP   95, STRESS PERIOD    2
1
  VOLUMETRIC BUDGET FOR ENTIRE MODEL AT END OF TIME STEP   95, STRESS PERIOD   2
  ------------------------------------------------------------------------------

     CUMULATIVE VOLUMES      L**3       RATES FOR THIS TIME STEP      L**3/T
     ------------------                 ------------------------

           IN:                                      IN:
           ---                                      ---
             STORAGE =       24998.0098               STORAGE =       4.3209E-02
       CONSTANT HEAD =           0.0000         CONSTANT HEAD =           0.0000
               WELLS =           0.0000                 WELLS =           0.0000
       RIVER LEAKAGE =       45321.0312         RIVER LEAKAGE =         555.0898

            TOTAL IN =       70319.0391              TOTAL IN =         555.1331

          OUT:                                     OUT:
          ----                                     ----
             STORAGE =       2.6087E-02               STORAGE =       7.3806E-04
       CONSTANT HEAD =           0.0000         CONSTANT HEAD =           0.0000
               WELLS =           0.0000                 WELLS =           0.0000
       RIVER LEAKAGE =       70325.8750         RIVER LEAKAGE =         555.1998

           TOTAL OUT =       70325.8984             TOTAL OUT =         555.2005

            IN - OUT =          -6.8594              IN - OUT =      -6.7444E-02

 PERCENT DISCREPANCY =          -0.01     PERCENT DISCREPANCY =          -0.01






         TIME SUMMARY AT END OF TIME STEP   95 IN STRESS PERIOD    2
                    SECONDS     MINUTES      HOURS       DAYS        YEARS
                    -----------------------------------------------------------
   TIME STEP LENGTH  86400.      1440.0      24.000      1.0000     2.73785E-03
 STRESS PERIOD TIME 8.20800E+06 1.36800E+05  2280.0      95.000     0.26010    
         TOTAL TIME 8.29440E+06 1.38240E+05  2304.0      96.000     0.26283    
1

 SOLVING FOR HEAD 

 OUTPUT CONTROL FOR STRESS PERIOD    2   TIME STEP   96
    SAVE HEAD FOR ALL LAYERS
    SAVE DRAWDOWN FOR ALL LAYERS
    SAVE BUDGET
    PRINT HEAD FOR ALL LAYERS
    PRINT BUDGET
 UBDSV1 SAVING "         STORAGE" ON UNIT  53 AT TIME STEP 96, STRESS PERIOD   2
 UBDSV2 SAVING "   CONSTANT HEAD" ON UNIT  53 AT TIME STEP 96, STRESS PERIOD   2
 UBDSV1 SAVING "FLOW RIGHT FACE " ON UNIT  53 AT TIME STEP 96, STRESS PERIOD   2
 UBDSV1 SAVING "FLOW FRONT FACE " ON UNIT  53 AT TIME STEP 96, STRESS PERIOD   2
 UBDSV1 SAVING "FLOW LOWER FACE " ON UNIT  53 AT TIME STEP 96, STRESS PERIOD   2
1
              HEAD IN LAYER   1 AT END OF TIME STEP  96 IN STRESS PERIOD    2
  ---------------------------------------------------------------------------

            1           2           3           4           5           6           7           8           9          10
 ........................................................................................................................
   1    9.997       8.887       7.776       6.666       5.556       4.445       3.335       2.224       1.114      3.7013E-03
   2    9.997       8.887       7.776       6.666       5.556       4.445       3.335       2.224       1.114      3.7013E-03
   3    9.997       8.887       7.776       6.666       5.556       4.445       3.335       2.224       1.114      3.7013E-03
   4    9.997       8.887       7.776       6.666       5.556       4.445       3.335       2.224       1.114      3.7013E-03
   5    9.997       8.887       7.776       6.666       5.556       4.445       3.335       2.224       1.114      3.7013E-03
   6    9.997       8.887       7.776       6.666       5.556       4.445       3.335       2.224       1.114      3.7013E-03
   7    9.997       8.887       7.776       6.666       5.556       4.445       3.335       2.224       1.114      3.7013E-03
   8    9.997       8.887       7.776       6.666       5.556       4.445       3.335       2.224       1.114      3.7013E-03
   9    9.997       8.887       7.776       6.666       5.556       4.445       3.335       2.224       1.114      3.7013E-03
  10    9.997       8.887       7.776       6.666       5.556       4.445       3.335       2.224       1.114      3.7013E-03
1
              HEAD IN LAYER   2 AT END OF TIME STEP  96 IN STRESS PERIOD    2
  ---------------------------------------------------------------------------

            1           2           3           4           5           6           7           8           9          10
 ........................................................................................................................
   1    9.997       8.887       7.776       6.666       5.556       4.445       3.335       2.224       1.114      3.7013E-03
   2    9.997       8.887       7.776       6.666       5.556       4.445       3.335       2.224       1.114      3.7013E-03
   3    9.997       8.887       7.776       6.666       5.556       4.445       3.335       2.224       1.114      3.7013E-03
   4    9.997       8.887       7.776       6.666       5.556       4.445       3.335       2.224       1.114      3.7013E-03
   5    9.997       8.887       7.776       6.666       5.556       4.445       3.335       2.224       1.114      3.7013E-03
   6    9.997       8.887       7.776       6.666       5.556       4.445       3.335       2.224       1.114      3.7013E-03
   7    9.997       8.887       7.776       6.666       5.556       4.445       3.335       2.224       1.114      3.7013E-03
   8    9.997       8.887       7.776       6.666       5.556       4.445       3.335       2.224       1.114      3.7013E-03
   9    9.997       8.887       7.776       6.666       5.556       4.445       3.335       2.224       1.114      3.7013E-03
  10    9.997       8.887       7.776       6.666       5.556       4.445       3.335       2.224       1.114      3.7013E-03
1
              HEAD IN LAYER   3 AT END OF TIME STEP  96 IN STRESS PERIOD    2
  ---------------------------------------------------------------------------

            1           2           3           4           5           6           7           8           9          10
 ........................................................................................................................
   1    9.997       8.887       7.776       6.666       5.556       4.445       3.335       2.224       1.114      3.7013E-03
   2    9.997       8.887       7.776       6.666       5.556       4.445       3.335       2.224       1.114      3.7013E-03
   3    9.997       8.887       7.776       6.666       5.556       4.445       3.335       2.224       1.114      3.7013E-03
   4    9.997       8.887       7.776       6.666       5.556       4.445       3.335       2.224       1.114      3.7013E-03
   5    9.997       8.887       7.776       6.666       5.556       4.445       3.335       2.224       1.114      3.7013E-03
   6    9.997       8.887       7.776       6.666       5.556       4.445       3.335       2.224       1.114      3.7013E-03
   7    9.997       8.887       7.776       6.666       5.556       4.445       3.335       2.224       1.114      3.7013E-03
   8    9.997       8.887       7.776       6.666       5.556       4.445       3.335       2.224       1.114      3.7013E-03
   9    9.997       8.887       7.776       6.666       5.556       4.445       3.335       2.224       1.114      3.7013E-03
  10    9.997       8.887       7.776       6.666       5.556       4.445       3.335       2.224       1.114      3.7013E-03

 HEAD WILL BE SAVED ON UNIT   51 AT END OF TIME STEP   96, STRESS PERIOD    2

 DRAWDOWN WILL BE SAVED ON UNIT   52 AT END OF TIME STEP   96, STRESS PERIOD    2
1
  VOLUMETRIC BUDGET FOR ENTIRE MODEL AT END OF TIME STEP   96, STRESS PERIOD   2
  ------------------------------------------------------------------------------

     CUMULATIVE VOLUMES      L**3       RATES FOR THIS TIME STEP      L**3/T
     ------------------                 ------------------------

           IN:                                      IN:
           ---                                      ---
             STORAGE =       24998.0488               STORAGE =       3.8958E-02
       CONSTANT HEAD =           0.0000         CONSTANT HEAD =           0.0000
               WELLS =           0.0000                 WELLS =           0.0000
       RIVER LEAKAGE =       45876.1250         RIVER LEAKAGE =         555.0922

            TOTAL IN =       70874.1719              TOTAL IN =         555.1312

          OUT:                                     OUT:
          ----                                     ----
             STORAGE =       2.6823E-02               STORAGE =       7.3556E-04
       CONSTANT HEAD =           0.0000         CONSTANT HEAD =           0.0000
               WELLS =           0.0000                 WELLS =           0.0000
       RIVER LEAKAGE =       70881.0703         RIVER LEAKAGE =         555.1975

           TOTAL OUT =       70881.0938             TOTAL OUT =         555.1982

            IN - OUT =          -6.9219              IN - OUT =      -6.7078E-02

 PERCENT DISCREPANCY =          -0.01     PERCENT DISCREPANCY =          -0.01






         TIME SUMMARY AT END OF TIME STEP   96 IN STRESS PERIOD    2
                    SECONDS     MINUTES      HOURS       DAYS        YEARS
                    -----------------------------------------------------------
   TIME STEP LENGTH  86400.      1440.0      24.000      1.0000     2.73785E-03
 STRESS PERIOD TIME 8.29440E+06 1.38240E+05  2304.0      96.000     0.26283    
         TOTAL TIME 8.38080E+06 1.39680E+05  2328.0      97.000     0.26557    
1

 SOLVING FOR HEAD 

 OUTPUT CONTROL FOR STRESS PERIOD    2   TIME STEP   97
    SAVE HEAD FOR ALL LAYERS
    SAVE DRAWDOWN FOR ALL LAYERS
    SAVE BUDGET
    PRINT HEAD FOR ALL LAYERS
    PRINT BUDGET
 UBDSV1 SAVING "         STORAGE" ON UNIT  53 AT TIME STEP 97, STRESS PERIOD   2
 UBDSV2 SAVING "   CONSTANT HEAD" ON UNIT  53 AT TIME STEP 97, STRESS PERIOD   2
 UBDSV1 SAVING "FLOW RIGHT FACE " ON UNIT  53 AT TIME STEP 97, STRESS PERIOD   2
 UBDSV1 SAVING "FLOW FRONT FACE " ON UNIT  53 AT TIME STEP 97, STRESS PERIOD   2
 UBDSV1 SAVING "FLOW LOWER FACE " ON UNIT  53 AT TIME STEP 97, STRESS PERIOD   2
1
              HEAD IN LAYER   1 AT END OF TIME STEP  97 IN STRESS PERIOD    2
  ---------------------------------------------------------------------------

            1           2           3           4           5           6           7           8           9          10
 ........................................................................................................................
   1    9.997       8.887       7.776       6.666       5.556       4.445       3.335       2.224       1.114      3.7013E-03
   2    9.997       8.887       7.776       6.666       5.556       4.445       3.335       2.224       1.114      3.7013E-03
   3    9.997       8.887       7.776       6.666       5.556       4.445       3.335       2.224       1.114      3.7013E-03
   4    9.997       8.887       7.776       6.666       5.556       4.445       3.335       2.224       1.114      3.7013E-03
   5    9.997       8.887       7.776       6.666       5.556       4.445       3.335       2.224       1.114      3.7013E-03
   6    9.997       8.887       7.776       6.666       5.556       4.445       3.335       2.224       1.114      3.7013E-03
   7    9.997       8.887       7.776       6.666       5.556       4.445       3.335       2.224       1.114      3.7013E-03
   8    9.997       8.887       7.776       6.666       5.556       4.445       3.335       2.224       1.114      3.7013E-03
   9    9.997       8.887       7.776       6.666       5.556       4.445       3.335       2.224       1.114      3.7013E-03
  10    9.997       8.887       7.776       6.666       5.556       4.445       3.335       2.224       1.114      3.7013E-03
1
              HEAD IN LAYER   2 AT END OF TIME STEP  97 IN STRESS PERIOD    2
  ---------------------------------------------------------------------------

            1           2           3           4           5           6           7           8           9          10
 ........................................................................................................................
   1    9.997       8.887       7.776       6.666       5.556       4.445       3.335       2.224       1.114      3.7013E-03
   2    9.997       8.887       7.776       6.666       5.556       4.445       3.335       2.224       1.114      3.7013E-03
   3    9.997       8.887       7.776       6.666       5.556       4.445       3.335       2.224       1.114      3.7013E-03
   4    9.997       8.887       7.776       6.666       5.556       4.445       3.335       2.224       1.114      3.7013E-03
   5    9.997       8.887       7.776       6.666       5.556       4.445       3.335       2.224       1.114      3.7013E-03
   6    9.997       8.887       7.776       6.666       5.556       4.445       3.335       2.224       1.114      3.7013E-03
   7    9.997       8.887       7.776       6.666       5.556       4.445       3.335       2.224       1.114      3.7013E-03
   8    9.997       8.887       7.776       6.666       5.556       4.445       3.335       2.224       1.114      3.7013E-03
   9    9.997       8.887       7.776       6.666       5.556       4.445       3.335       2.224       1.114      3.7013E-03
  10    9.997       8.887       7.776       6.666       5.556       4.445       3.335       2.224       1.114      3.7013E-03
1
              HEAD IN LAYER   3 AT END OF TIME STEP  97 IN STRESS PERIOD    2
  ---------------------------------------------------------------------------

            1           2           3           4           5           6           7           8           9          10
 ........................................................................................................................
   1    9.997       8.887       7.776       6.666       5.556       4.445       3.335       2.224       1.114      3.7013E-03
   2    9.997       8.887       7.776       6.666       5.556       4.445       3.335       2.224       1.114      3.7013E-03
   3    9.997       8.887       7.776       6.666       5.556       4.445       3.335       2.224       1.114      3.7013E-03
   4    9.997       8.887       7.776       6.666       5.556       4.445       3.335       2.224       1.114      3.7013E-03
   5    9.997       8.887       7.776       6.666       5.556       4.445       3.335       2.224       1.114      3.7013E-03
   6    9.997       8.887       7.776       6.666       5.556       4.445       3.335       2.224       1.114      3.7013E-03
   7    9.997       8.887       7.776       6.666       5.556       4.445       3.335       2.224       1.114      3.7013E-03
   8    9.997       8.887       7.776       6.666       5.556       4.445       3.335       2.224       1.114      3.7013E-03
   9    9.997       8.887       7.776       6.666       5.556       4.445       3.335       2.224       1.114      3.7013E-03
  10    9.997       8.887       7.776       6.666       5.556       4.445       3.335       2.224       1.114      3.7013E-03

 HEAD WILL BE SAVED ON UNIT   51 AT END OF TIME STEP   97, STRESS PERIOD    2

 DRAWDOWN WILL BE SAVED ON UNIT   52 AT END OF TIME STEP   97, STRESS PERIOD    2
1
  VOLUMETRIC BUDGET FOR ENTIRE MODEL AT END OF TIME STEP   97, STRESS PERIOD   2
  ------------------------------------------------------------------------------

     CUMULATIVE VOLUMES      L**3       RATES FOR THIS TIME STEP      L**3/T
     ------------------                 ------------------------

           IN:                                      IN:
           ---                                      ---
             STORAGE =       24998.0840               STORAGE =       3.4684E-02
       CONSTANT HEAD =           0.0000         CONSTANT HEAD =           0.0000
               WELLS =           0.0000                 WELLS =           0.0000
       RIVER LEAKAGE =       46431.2188         RIVER LEAKAGE =         555.0942

            TOTAL IN =       71429.3047              TOTAL IN =         555.1289

          OUT:                                     OUT:
          ----                                     ----
             STORAGE =       2.7556E-02               STORAGE =       7.3344E-04
       CONSTANT HEAD =           0.0000         CONSTANT HEAD =           0.0000
               WELLS =           0.0000                 WELLS =           0.0000
       RIVER LEAKAGE =       71436.2656         RIVER LEAKAGE =         555.1956

           TOTAL OUT =       71436.2969             TOTAL OUT =         555.1964

            IN - OUT =          -6.9922              IN - OUT =      -6.7444E-02

 PERCENT DISCREPANCY =          -0.01     PERCENT DISCREPANCY =          -0.01






         TIME SUMMARY AT END OF TIME STEP   97 IN STRESS PERIOD    2
                    SECONDS     MINUTES      HOURS       DAYS        YEARS
                    -----------------------------------------------------------
   TIME STEP LENGTH  86400.      1440.0      24.000      1.0000     2.73785E-03
 STRESS PERIOD TIME 8.38080E+06 1.39680E+05  2328.0      97.000     0.26557    
         TOTAL TIME 8.46720E+06 1.41120E+05  2352.0      98.000     0.26831    
1

 SOLVING FOR HEAD 

 OUTPUT CONTROL FOR STRESS PERIOD    2   TIME STEP   98
    SAVE HEAD FOR ALL LAYERS
    SAVE DRAWDOWN FOR ALL LAYERS
    SAVE BUDGET
    PRINT HEAD FOR ALL LAYERS
    PRINT BUDGET
 UBDSV1 SAVING "         STORAGE" ON UNIT  53 AT TIME STEP 98, STRESS PERIOD   2
 UBDSV2 SAVING "   CONSTANT HEAD" ON UNIT  53 AT TIME STEP 98, STRESS PERIOD   2
 UBDSV1 SAVING "FLOW RIGHT FACE " ON UNIT  53 AT TIME STEP 98, STRESS PERIOD   2
 UBDSV1 SAVING "FLOW FRONT FACE " ON UNIT  53 AT TIME STEP 98, STRESS PERIOD   2
 UBDSV1 SAVING "FLOW LOWER FACE " ON UNIT  53 AT TIME STEP 98, STRESS PERIOD   2
1
              HEAD IN LAYER   1 AT END OF TIME STEP  98 IN STRESS PERIOD    2
  ---------------------------------------------------------------------------

            1           2           3           4           5           6           7           8           9          10
 ........................................................................................................................
   1    9.997       8.887       7.776       6.666       5.556       4.445       3.335       2.224       1.114      3.7013E-03
   2    9.997       8.887       7.776       6.666       5.556       4.445       3.335       2.224       1.114      3.7013E-03
   3    9.997       8.887       7.776       6.666       5.556       4.445       3.335       2.224       1.114      3.7013E-03
   4    9.997       8.887       7.776       6.666       5.556       4.445       3.335       2.224       1.114      3.7013E-03
   5    9.997       8.887       7.776       6.666       5.556       4.445       3.335       2.224       1.114      3.7013E-03
   6    9.997       8.887       7.776       6.666       5.556       4.445       3.335       2.224       1.114      3.7013E-03
   7    9.997       8.887       7.776       6.666       5.556       4.445       3.335       2.224       1.114      3.7013E-03
   8    9.997       8.887       7.776       6.666       5.556       4.445       3.335       2.224       1.114      3.7013E-03
   9    9.997       8.887       7.776       6.666       5.556       4.445       3.335       2.224       1.114      3.7013E-03
  10    9.997       8.887       7.776       6.666       5.556       4.445       3.335       2.224       1.114      3.7013E-03
1
              HEAD IN LAYER   2 AT END OF TIME STEP  98 IN STRESS PERIOD    2
  ---------------------------------------------------------------------------

            1           2           3           4           5           6           7           8           9          10
 ........................................................................................................................
   1    9.997       8.887       7.776       6.666       5.556       4.445       3.335       2.224       1.114      3.7013E-03
   2    9.997       8.887       7.776       6.666       5.556       4.445       3.335       2.224       1.114      3.7013E-03
   3    9.997       8.887       7.776       6.666       5.556       4.445       3.335       2.224       1.114      3.7013E-03
   4    9.997       8.887       7.776       6.666       5.556       4.445       3.335       2.224       1.114      3.7013E-03
   5    9.997       8.887       7.776       6.666       5.556       4.445       3.335       2.224       1.114      3.7013E-03
   6    9.997       8.887       7.776       6.666       5.556       4.445       3.335       2.224       1.114      3.7013E-03
   7    9.997       8.887       7.776       6.666       5.556       4.445       3.335       2.224       1.114      3.7013E-03
   8    9.997       8.887       7.776       6.666       5.556       4.445       3.335       2.224       1.114      3.7013E-03
   9    9.997       8.887       7.776       6.666       5.556       4.445       3.335       2.224       1.114      3.7013E-03
  10    9.997       8.887       7.776       6.666       5.556       4.445       3.335       2.224       1.114      3.7013E-03
1
              HEAD IN LAYER   3 AT END OF TIME STEP  98 IN STRESS PERIOD    2
  ---------------------------------------------------------------------------

            1           2           3           4           5           6           7           8           9          10
 ........................................................................................................................
   1    9.997       8.887       7.776       6.666       5.556       4.445       3.335       2.224       1.114      3.7013E-03
   2    9.997       8.887       7.776       6.666       5.556       4.445       3.335       2.224       1.114      3.7013E-03
   3    9.997       8.887       7.776       6.666       5.556       4.445       3.335       2.224       1.114      3.7013E-03
   4    9.997       8.887       7.776       6.666       5.556       4.445       3.335       2.224       1.114      3.7013E-03
   5    9.997       8.887       7.776       6.666       5.556       4.445       3.335       2.224       1.114      3.7013E-03
   6    9.997       8.887       7.776       6.666       5.556       4.445       3.335       2.224       1.114      3.7013E-03
   7    9.997       8.887       7.776       6.666       5.556       4.445       3.335       2.224       1.114      3.7013E-03
   8    9.997       8.887       7.776       6.666       5.556       4.445       3.335       2.224       1.114      3.7013E-03
   9    9.997       8.887       7.776       6.666       5.556       4.445       3.335       2.224       1.114      3.7013E-03
  10    9.997       8.887       7.776       6.666       5.556       4.445       3.335       2.224       1.114      3.7013E-03

 HEAD WILL BE SAVED ON UNIT   51 AT END OF TIME STEP   98, STRESS PERIOD    2

 DRAWDOWN WILL BE SAVED ON UNIT   52 AT END OF TIME STEP   98, STRESS PERIOD    2
1
  VOLUMETRIC BUDGET FOR ENTIRE MODEL AT END OF TIME STEP   98, STRESS PERIOD   2
  ------------------------------------------------------------------------------

     CUMULATIVE VOLUMES      L**3       RATES FOR THIS TIME STEP      L**3/T
     ------------------                 ------------------------

           IN:                                      IN:
           ---                                      ---
             STORAGE =       24998.1152               STORAGE =       3.1079E-02
       CONSTANT HEAD =           0.0000         CONSTANT HEAD =           0.0000
               WELLS =           0.0000                 WELLS =           0.0000
       RIVER LEAKAGE =       46986.3164         RIVER LEAKAGE =         555.0959

            TOTAL IN =       71984.4297              TOTAL IN =         555.1270

          OUT:                                     OUT:
          ----                                     ----
             STORAGE =       2.8287E-02               STORAGE =       7.3146E-04
       CONSTANT HEAD =           0.0000         CONSTANT HEAD =           0.0000
               WELLS =           0.0000                 WELLS =           0.0000
       RIVER LEAKAGE =       71991.4609         RIVER LEAKAGE =         555.1938

           TOTAL OUT =       71991.4922             TOTAL OUT =         555.1945

            IN - OUT =          -7.0625              IN - OUT =      -6.7505E-02

 PERCENT DISCREPANCY =          -0.01     PERCENT DISCREPANCY =          -0.01






         TIME SUMMARY AT END OF TIME STEP   98 IN STRESS PERIOD    2
                    SECONDS     MINUTES      HOURS       DAYS        YEARS
                    -----------------------------------------------------------
   TIME STEP LENGTH  86400.      1440.0      24.000      1.0000     2.73785E-03
 STRESS PERIOD TIME 8.46720E+06 1.41120E+05  2352.0      98.000     0.26831    
         TOTAL TIME 8.55360E+06 1.42560E+05  2376.0      99.000     0.27105    
1

 SOLVING FOR HEAD 

 OUTPUT CONTROL FOR STRESS PERIOD    2   TIME STEP   99
    SAVE HEAD FOR ALL LAYERS
    SAVE DRAWDOWN FOR ALL LAYERS
    SAVE BUDGET
    PRINT HEAD FOR ALL LAYERS
    PRINT BUDGET
 UBDSV1 SAVING "         STORAGE" ON UNIT  53 AT TIME STEP 99, STRESS PERIOD   2
 UBDSV2 SAVING "   CONSTANT HEAD" ON UNIT  53 AT TIME STEP 99, STRESS PERIOD   2
 UBDSV1 SAVING "FLOW RIGHT FACE " ON UNIT  53 AT TIME STEP 99, STRESS PERIOD   2
 UBDSV1 SAVING "FLOW FRONT FACE " ON UNIT  53 AT TIME STEP 99, STRESS PERIOD   2
 UBDSV1 SAVING "FLOW LOWER FACE " ON UNIT  53 AT TIME STEP 99, STRESS PERIOD   2
1
              HEAD IN LAYER   1 AT END OF TIME STEP  99 IN STRESS PERIOD    2
  ---------------------------------------------------------------------------

            1           2           3           4           5           6           7           8           9          10
 ........................................................................................................................
   1    9.997       8.887       7.776       6.666       5.556       4.445       3.335       2.224       1.114      3.7013E-03
   2    9.997       8.887       7.776       6.666       5.556       4.445       3.335       2.224       1.114      3.7013E-03
   3    9.997       8.887       7.776       6.666       5.556       4.445       3.335       2.224       1.114      3.7013E-03
   4    9.997       8.887       7.776       6.666       5.556       4.445       3.335       2.224       1.114      3.7013E-03
   5    9.997       8.887       7.776       6.666       5.556       4.445       3.335       2.224       1.114      3.7013E-03
   6    9.997       8.887       7.776       6.666       5.556       4.445       3.335       2.224       1.114      3.7013E-03
   7    9.997       8.887       7.776       6.666       5.556       4.445       3.335       2.224       1.114      3.7013E-03
   8    9.997       8.887       7.776       6.666       5.556       4.445       3.335       2.224       1.114      3.7013E-03
   9    9.997       8.887       7.776       6.666       5.556       4.445       3.335       2.224       1.114      3.7013E-03
  10    9.997       8.887       7.776       6.666       5.556       4.445       3.335       2.224       1.114      3.7013E-03
1
              HEAD IN LAYER   2 AT END OF TIME STEP  99 IN STRESS PERIOD    2
  ---------------------------------------------------------------------------

            1           2           3           4           5           6           7           8           9          10
 ........................................................................................................................
   1    9.997       8.887       7.776       6.666       5.556       4.445       3.335       2.224       1.114      3.7013E-03
   2    9.997       8.887       7.776       6.666       5.556       4.445       3.335       2.224       1.114      3.7013E-03
   3    9.997       8.887       7.776       6.666       5.556       4.445       3.335       2.224       1.114      3.7013E-03
   4    9.997       8.887       7.776       6.666       5.556       4.445       3.335       2.224       1.114      3.7013E-03
   5    9.997       8.887       7.776       6.666       5.556       4.445       3.335       2.224       1.114      3.7013E-03
   6    9.997       8.887       7.776       6.666       5.556       4.445       3.335       2.224       1.114      3.7013E-03
   7    9.997       8.887       7.776       6.666       5.556       4.445       3.335       2.224       1.114      3.7013E-03
   8    9.997       8.887       7.776       6.666       5.556       4.445       3.335       2.224       1.114      3.7013E-03
   9    9.997       8.887       7.776       6.666       5.556       4.445       3.335       2.224       1.114      3.7013E-03
  10    9.997       8.887       7.776       6.666       5.556       4.445       3.335       2.224       1.114      3.7013E-03
1
              HEAD IN LAYER   3 AT END OF TIME STEP  99 IN STRESS PERIOD    2
  ---------------------------------------------------------------------------

            1           2           3           4           5           6           7           8           9          10
 ........................................................................................................................
   1    9.997       8.887       7.776       6.666       5.556       4.445       3.335       2.224       1.114      3.7013E-03
   2    9.997       8.887       7.776       6.666       5.556       4.445       3.335       2.224       1.114      3.7013E-03
   3    9.997       8.887       7.776       6.666       5.556       4.445       3.335       2.224       1.114      3.7013E-03
   4    9.997       8.887       7.776       6.666       5.556       4.445       3.335       2.224       1.114      3.7013E-03
   5    9.997       8.887       7.776       6.666       5.556       4.445       3.335       2.224       1.114      3.7013E-03
   6    9.997       8.887       7.776       6.666       5.556       4.445       3.335       2.224       1.114      3.7013E-03
   7    9.997       8.887       7.776       6.666       5.556       4.445       3.335       2.224       1.114      3.7013E-03
   8    9.997       8.887       7.776       6.666       5.556       4.445       3.335       2.224       1.114      3.7013E-03
   9    9.997       8.887       7.776       6.666       5.556       4.445       3.335       2.224       1.114      3.7013E-03
  10    9.997       8.887       7.776       6.666       5.556       4.445       3.335       2.224       1.114      3.7013E-03

 HEAD WILL BE SAVED ON UNIT   51 AT END OF TIME STEP   99, STRESS PERIOD    2

 DRAWDOWN WILL BE SAVED ON UNIT   52 AT END OF TIME STEP   99, STRESS PERIOD    2
1
  VOLUMETRIC BUDGET FOR ENTIRE MODEL AT END OF TIME STEP   99, STRESS PERIOD   2
  ------------------------------------------------------------------------------

     CUMULATIVE VOLUMES      L**3       RATES FOR THIS TIME STEP      L**3/T
     ------------------                 ------------------------

           IN:                                      IN:
           ---                                      ---
             STORAGE =       24998.1445               STORAGE =       2.8397E-02
       CONSTANT HEAD =           0.0000         CONSTANT HEAD =           0.0000
               WELLS =           0.0000                 WELLS =           0.0000
       RIVER LEAKAGE =       47541.4141         RIVER LEAKAGE =         555.0975

            TOTAL IN =       72539.5625              TOTAL IN =         555.1259

          OUT:                                     OUT:
          ----                                     ----
             STORAGE =       2.8864E-02               STORAGE =       5.7701E-04
       CONSTANT HEAD =           0.0000         CONSTANT HEAD =           0.0000
               WELLS =           0.0000                 WELLS =           0.0000
       RIVER LEAKAGE =       72546.6562         RIVER LEAKAGE =         555.1921

           TOTAL OUT =       72546.6875             TOTAL OUT =         555.1927

            IN - OUT =          -7.1250              IN - OUT =      -6.6833E-02

 PERCENT DISCREPANCY =          -0.01     PERCENT DISCREPANCY =          -0.01






         TIME SUMMARY AT END OF TIME STEP   99 IN STRESS PERIOD    2
                    SECONDS     MINUTES      HOURS       DAYS        YEARS
                    -----------------------------------------------------------
   TIME STEP LENGTH  86400.      1440.0      24.000      1.0000     2.73785E-03
 STRESS PERIOD TIME 8.55360E+06 1.42560E+05  2376.0      99.000     0.27105    
         TOTAL TIME 8.64000E+06 1.44000E+05  2400.0      100.00     0.27379    
1

 SOLVING FOR HEAD 

 OUTPUT CONTROL FOR STRESS PERIOD    2   TIME STEP  100
    SAVE HEAD FOR ALL LAYERS
    SAVE DRAWDOWN FOR ALL LAYERS
    SAVE BUDGET
    PRINT HEAD FOR ALL LAYERS
    PRINT BUDGET
 UBDSV1 SAVING "         STORAGE" ON UNIT  53 AT TIME STEP100, STRESS PERIOD   2
 UBDSV2 SAVING "   CONSTANT HEAD" ON UNIT  53 AT TIME STEP100, STRESS PERIOD   2
 UBDSV1 SAVING "FLOW RIGHT FACE " ON UNIT  53 AT TIME STEP100, STRESS PERIOD   2
 UBDSV1 SAVING "FLOW FRONT FACE " ON UNIT  53 AT TIME STEP100, STRESS PERIOD   2
 UBDSV1 SAVING "FLOW LOWER FACE " ON UNIT  53 AT TIME STEP100, STRESS PERIOD   2
1
              HEAD IN LAYER   1 AT END OF TIME STEP 100 IN STRESS PERIOD    2
  ---------------------------------------------------------------------------

            1           2           3           4           5           6           7           8           9          10
 ........................................................................................................................
   1    9.997       8.887       7.776       6.666       5.556       4.445       3.335       2.224       1.114      3.7013E-03
   2    9.997       8.887       7.776       6.666       5.556       4.445       3.335       2.224       1.114      3.7013E-03
   3    9.997       8.887       7.776       6.666       5.556       4.445       3.335       2.224       1.114      3.7013E-03
   4    9.997       8.887       7.776       6.666       5.556       4.445       3.335       2.224       1.114      3.7013E-03
   5    9.997       8.887       7.776       6.666       5.556       4.445       3.335       2.224       1.114      3.7013E-03
   6    9.997       8.887       7.776       6.666       5.556       4.445       3.335       2.224       1.114      3.7013E-03
   7    9.997       8.887       7.776       6.666       5.556       4.445       3.335       2.224       1.114      3.7013E-03
   8    9.997       8.887       7.776       6.666       5.556       4.445       3.335       2.224       1.114      3.7013E-03
   9    9.997       8.887       7.776       6.666       5.556       4.445       3.335       2.224       1.114      3.7013E-03
  10    9.997       8.887       7.776       6.666       5.556       4.445       3.335       2.224       1.114      3.7013E-03
1
              HEAD IN LAYER   2 AT END OF TIME STEP 100 IN STRESS PERIOD    2
  ---------------------------------------------------------------------------

            1           2           3           4           5           6           7           8           9          10
 ........................................................................................................................
   1    9.997       8.887       7.776       6.666       5.556       4.445       3.335       2.224       1.114      3.7013E-03
   2    9.997       8.887       7.776       6.666       5.556       4.445       3.335       2.224       1.114      3.7013E-03
   3    9.997       8.887       7.776       6.666       5.556       4.445       3.335       2.224       1.114      3.7013E-03
   4    9.997       8.887       7.776       6.666       5.556       4.445       3.335       2.224       1.114      3.7013E-03
   5    9.997       8.887       7.776       6.666       5.556       4.445       3.335       2.224       1.114      3.7013E-03
   6    9.997       8.887       7.776       6.666       5.556       4.445       3.335       2.224       1.114      3.7013E-03
   7    9.997       8.887       7.776       6.666       5.556       4.445       3.335       2.224       1.114      3.7013E-03
   8    9.997       8.887       7.776       6.666       5.556       4.445       3.335       2.224       1.114      3.7013E-03
   9    9.997       8.887       7.776       6.666       5.556       4.445       3.335       2.224       1.114      3.7013E-03
  10    9.997       8.887       7.776       6.666       5.556       4.445       3.335       2.224       1.114      3.7013E-03
1
              HEAD IN LAYER   3 AT END OF TIME STEP 100 IN STRESS PERIOD    2
  ---------------------------------------------------------------------------

            1           2           3           4           5           6           7           8           9          10
 ........................................................................................................................
   1    9.997       8.887       7.776       6.666       5.556       4.445       3.335       2.224       1.114      3.7013E-03
   2    9.997       8.887       7.776       6.666       5.556       4.445       3.335       2.224       1.114      3.7013E-03
   3    9.997       8.887       7.776       6.666       5.556       4.445       3.335       2.224       1.114      3.7013E-03
   4    9.997       8.887       7.776       6.666       5.556       4.445       3.335       2.224       1.114      3.7013E-03
   5    9.997       8.887       7.776       6.666       5.556       4.445       3.335       2.224       1.114      3.7013E-03
   6    9.997       8.887       7.776       6.666       5.556       4.445       3.335       2.224       1.114      3.7013E-03
   7    9.997       8.887       7.776       6.666       5.556       4.445       3.335       2.224       1.114      3.7013E-03
   8    9.997       8.887       7.776       6.666       5.556       4.445       3.335       2.224       1.114      3.7013E-03
   9    9.997       8.887       7.776       6.666       5.556       4.445       3.335       2.224       1.114      3.7013E-03
  10    9.997       8.887       7.776       6.666       5.556       4.445       3.335       2.224       1.114      3.7013E-03

 HEAD WILL BE SAVED ON UNIT   51 AT END OF TIME STEP  100, STRESS PERIOD    2

 DRAWDOWN WILL BE SAVED ON UNIT   52 AT END OF TIME STEP  100, STRESS PERIOD    2
1
  VOLUMETRIC BUDGET FOR ENTIRE MODEL AT END OF TIME STEP  100, STRESS PERIOD   2
  ------------------------------------------------------------------------------

     CUMULATIVE VOLUMES      L**3       RATES FOR THIS TIME STEP      L**3/T
     ------------------                 ------------------------

           IN:                                      IN:
           ---                                      ---
             STORAGE =       24998.1699               STORAGE =       2.4431E-02
       CONSTANT HEAD =           0.0000         CONSTANT HEAD =           0.0000
               WELLS =           0.0000                 WELLS =           0.0000
       RIVER LEAKAGE =       48096.5117         RIVER LEAKAGE =         555.0991

            TOTAL IN =       73094.6797              TOTAL IN =         555.1235

          OUT:                                     OUT:
          ----                                     ----
             STORAGE =       2.9439E-02               STORAGE =       5.7504E-04
       CONSTANT HEAD =           0.0000         CONSTANT HEAD =           0.0000
               WELLS =           0.0000                 WELLS =           0.0000
       RIVER LEAKAGE =       73101.8438         RIVER LEAKAGE =         555.1904

           TOTAL OUT =       73101.8750             TOTAL OUT =         555.1909

            IN - OUT =          -7.1953              IN - OUT =      -6.7383E-02

 PERCENT DISCREPANCY =          -0.01     PERCENT DISCREPANCY =          -0.01






         TIME SUMMARY AT END OF TIME STEP  100 IN STRESS PERIOD    2
                    SECONDS     MINUTES      HOURS       DAYS        YEARS
                    -----------------------------------------------------------
   TIME STEP LENGTH  86400.      1440.0      24.000      1.0000     2.73785E-03
 STRESS PERIOD TIME 8.64000E+06 1.44000E+05  2400.0      100.00     0.27379    
         TOTAL TIME 8.72640E+06 1.45440E+05  2424.0      101.00     0.27652    
1
1
                            STRESS PERIOD NO.    3, LENGTH =   100.0000    
                            -----------------------------------------------

                              NUMBER OF TIME STEPS =   100

                               MULTIPLIER FOR DELT =     1.000

                            INITIAL TIME STEP SIZE =   1.000000    

 WELL NO.  LAYER   ROW   COL   STRESS RATE         
 --------------------------------------------------
      1      1      5      5      -500.0    

      1 WELL 

 REUSING NON-PARAMETER RIVER REACHES FROM LAST STRESS PERIOD

     60 RIVER REACHES

 SOLVING FOR HEAD 

 OUTPUT CONTROL FOR STRESS PERIOD    3   TIME STEP    1
    SAVE HEAD FOR ALL LAYERS
    SAVE DRAWDOWN FOR ALL LAYERS
    SAVE BUDGET
    PRINT HEAD FOR ALL LAYERS
    PRINT BUDGET
 UBDSV1 SAVING "         STORAGE" ON UNIT  53 AT TIME STEP  1, STRESS PERIOD   3
 UBDSV2 SAVING "   CONSTANT HEAD" ON UNIT  53 AT TIME STEP  1, STRESS PERIOD   3
 UBDSV1 SAVING "FLOW RIGHT FACE " ON UNIT  53 AT TIME STEP  1, STRESS PERIOD   3
 UBDSV1 SAVING "FLOW FRONT FACE " ON UNIT  53 AT TIME STEP  1, STRESS PERIOD   3
 UBDSV1 SAVING "FLOW LOWER FACE " ON UNIT  53 AT TIME STEP  1, STRESS PERIOD   3
1
              HEAD IN LAYER   1 AT END OF TIME STEP   1 IN STRESS PERIOD    3
  ---------------------------------------------------------------------------

            1           2           3           4           5           6           7           8           9          10
 ........................................................................................................................
   1    9.997       8.880       7.763       6.644       5.528       4.423       3.321       2.217       1.111      3.6907E-03
   2    9.997       8.876       7.750       6.618       5.492       4.397       3.308       2.211       1.109      3.6845E-03
   3    9.997       8.865       7.717       6.541       5.357       4.320       3.274       2.199       1.105      3.6714E-03
   4    9.997       8.847       7.653       6.346       4.871       4.125       3.210       2.179       1.100      3.6535E-03
   5    9.997       8.832       7.581       5.982       2.604       3.760       3.137       2.163       1.096      3.6418E-03
   6    9.997       8.847       7.654       6.346       4.871       4.125       3.210       2.179       1.100      3.6536E-03
   7    9.997       8.865       7.718       6.542       5.358       4.321       3.275       2.199       1.105      3.6719E-03
   8    9.997       8.876       7.751       6.620       5.494       4.399       3.309       2.212       1.109      3.6856E-03
   9    9.997       8.882       7.766       6.649       5.534       4.428       3.324       2.219       1.112      3.6934E-03
  10    9.997       8.884       7.771       6.658       5.546       4.437       3.329       2.221       1.113      3.6967E-03
1
              HEAD IN LAYER   2 AT END OF TIME STEP   1 IN STRESS PERIOD    3
  ---------------------------------------------------------------------------

            1           2           3           4           5           6           7           8           9          10
 ........................................................................................................................
   1    9.997       8.880       7.763       6.644       5.528       4.423       3.321       2.217       1.111      3.6907E-03
   2    9.997       8.876       7.750       6.618       5.492       4.397       3.308       2.211       1.109      3.6845E-03
   3    9.997       8.865       7.717       6.541       5.358       4.320       3.274       2.199       1.105      3.6714E-03
   4    9.997       8.847       7.653       6.346       4.881       4.125       3.210       2.179       1.100      3.6535E-03
   5    9.997       8.832       7.581       5.992       3.104       3.770       3.138       2.163       1.096      3.6418E-03
   6    9.997       8.847       7.654       6.346       4.881       4.125       3.210       2.179       1.100      3.6536E-03
   7    9.997       8.865       7.718       6.542       5.358       4.321       3.275       2.199       1.105      3.6719E-03
   8    9.997       8.876       7.751       6.620       5.494       4.399       3.309       2.212       1.109      3.6856E-03
   9    9.997       8.882       7.766       6.649       5.534       4.428       3.324       2.219       1.112      3.6934E-03
  10    9.997       8.884       7.771       6.658       5.546       4.437       3.329       2.221       1.113      3.6967E-03
1
              HEAD IN LAYER   3 AT END OF TIME STEP   1 IN STRESS PERIOD    3
  ---------------------------------------------------------------------------

            1           2           3           4           5           6           7           8           9          10
 ........................................................................................................................
   1    9.997       8.880       7.763       6.644       5.528       4.423       3.321       2.217       1.111      3.6907E-03
   2    9.997       8.876       7.750       6.618       5.492       4.397       3.308       2.211       1.109      3.6845E-03
   3    9.997       8.865       7.717       6.541       5.358       4.320       3.274       2.199       1.105      3.6714E-03
   4    9.997       8.847       7.653       6.347       4.889       4.125       3.210       2.179       1.100      3.6535E-03
   5    9.997       8.832       7.581       6.000       3.338       3.778       3.138       2.163       1.096      3.6418E-03
   6    9.997       8.847       7.654       6.347       4.889       4.126       3.210       2.179       1.100      3.6536E-03
   7    9.997       8.865       7.718       6.542       5.359       4.321       3.275       2.199       1.105      3.6719E-03
   8    9.997       8.876       7.751       6.620       5.494       4.399       3.309       2.212       1.109      3.6856E-03
   9    9.997       8.882       7.766       6.649       5.534       4.428       3.324       2.219       1.112      3.6934E-03
  10    9.997       8.884       7.771       6.658       5.546       4.437       3.329       2.221       1.113      3.6967E-03

 HEAD WILL BE SAVED ON UNIT   51 AT END OF TIME STEP    1, STRESS PERIOD    3

 DRAWDOWN WILL BE SAVED ON UNIT   52 AT END OF TIME STEP    1, STRESS PERIOD    3
1
  VOLUMETRIC BUDGET FOR ENTIRE MODEL AT END OF TIME STEP    1, STRESS PERIOD   3
  ------------------------------------------------------------------------------

     CUMULATIVE VOLUMES      L**3       RATES FOR THIS TIME STEP      L**3/T
     ------------------                 ------------------------

           IN:                                      IN:
           ---                                      ---
             STORAGE =       25483.5547               STORAGE =         485.3845
       CONSTANT HEAD =           0.0000         CONSTANT HEAD =           0.0000
               WELLS =           0.0000                 WELLS =           0.0000
       RIVER LEAKAGE =       48662.2070         RIVER LEAKAGE =         565.6954

            TOTAL IN =       74145.7656              TOTAL IN =        1051.0798

          OUT:                                     OUT:
          ----                                     ----
             STORAGE =       2.9439E-02               STORAGE =           0.0000
       CONSTANT HEAD =           0.0000         CONSTANT HEAD =           0.0000
               WELLS =         500.0000                 WELLS =         500.0000
       RIVER LEAKAGE =       73652.9922         RIVER LEAKAGE =         551.1473

           TOTAL OUT =       74153.0234             TOTAL OUT =        1051.1472

            IN - OUT =          -7.2578              IN - OUT =      -6.7383E-02

 PERCENT DISCREPANCY =          -0.01     PERCENT DISCREPANCY =          -0.01






         TIME SUMMARY AT END OF TIME STEP    1 IN STRESS PERIOD    3
                    SECONDS     MINUTES      HOURS       DAYS        YEARS
                    -----------------------------------------------------------
   TIME STEP LENGTH  86400.      1440.0      24.000      1.0000     2.73785E-03
 STRESS PERIOD TIME  86400.      1440.0      24.000      1.0000     2.73785E-03
         TOTAL TIME 8.81280E+06 1.46880E+05  2448.0      102.00     0.27926    
1

 SOLVING FOR HEAD 

 OUTPUT CONTROL FOR STRESS PERIOD    3   TIME STEP    2
    SAVE HEAD FOR ALL LAYERS
    SAVE DRAWDOWN FOR ALL LAYERS
    SAVE BUDGET
    PRINT HEAD FOR ALL LAYERS
    PRINT BUDGET
 UBDSV1 SAVING "         STORAGE" ON UNIT  53 AT TIME STEP  2, STRESS PERIOD   3
 UBDSV2 SAVING "   CONSTANT HEAD" ON UNIT  53 AT TIME STEP  2, STRESS PERIOD   3
 UBDSV1 SAVING "FLOW RIGHT FACE " ON UNIT  53 AT TIME STEP  2, STRESS PERIOD   3
 UBDSV1 SAVING "FLOW FRONT FACE " ON UNIT  53 AT TIME STEP  2, STRESS PERIOD   3
 UBDSV1 SAVING "FLOW LOWER FACE " ON UNIT  53 AT TIME STEP  2, STRESS PERIOD   3
1
              HEAD IN LAYER   1 AT END OF TIME STEP   2 IN STRESS PERIOD    3
  ---------------------------------------------------------------------------

            1           2           3           4           5           6           7           8           9          10
 ........................................................................................................................
   1    9.997       8.864       7.729       6.594       5.470       4.372       3.285       2.196       1.102      3.6596E-03
   2    9.997       8.851       7.696       6.533       5.387       4.310       3.251       2.180       1.096      3.6403E-03
   3    9.997       8.822       7.618       6.367       5.128       4.145       3.171       2.147       1.084      3.6022E-03
   4    9.997       8.780       7.486       6.017       4.377       3.794       3.037       2.100       1.070      3.5545E-03
   5    9.997       8.750       7.360       5.490       1.693       3.267       2.911       2.067       1.061      3.5267E-03
   6    9.997       8.781       7.487       6.018       4.378       3.795       3.038       2.101       1.070      3.5553E-03
   7    9.997       8.823       7.620       6.370       5.131       4.147       3.173       2.148       1.085      3.6043E-03
   8    9.997       8.853       7.701       6.539       5.395       4.317       3.256       2.183       1.097      3.6452E-03
   9    9.997       8.870       7.741       6.611       5.491       4.390       3.297       2.203       1.105      3.6704E-03
  10    9.997       8.877       7.757       6.637       5.522       4.416       3.313       2.212       1.108      3.6816E-03
1
              HEAD IN LAYER   2 AT END OF TIME STEP   2 IN STRESS PERIOD    3
  ---------------------------------------------------------------------------

            1           2           3           4           5           6           7           8           9          10
 ........................................................................................................................
   1    9.997       8.864       7.729       6.594       5.470       4.372       3.285       2.196       1.102      3.6596E-03
   2    9.997       8.851       7.696       6.533       5.387       4.310       3.251       2.180       1.096      3.6403E-03
   3    9.997       8.822       7.618       6.367       5.129       4.145       3.171       2.147       1.084      3.6022E-03
   4    9.997       8.780       7.486       6.017       4.387       3.794       3.037       2.100       1.070      3.5545E-03
   5    9.997       8.750       7.361       5.501       2.203       3.277       2.911       2.067       1.061      3.5267E-03
   6    9.997       8.781       7.487       6.018       4.388       3.795       3.038       2.101       1.070      3.5553E-03
   7    9.997       8.823       7.620       6.370       5.132       4.148       3.173       2.148       1.085      3.6043E-03
   8    9.997       8.853       7.701       6.539       5.395       4.317       3.256       2.183       1.097      3.6452E-03
   9    9.997       8.870       7.741       6.611       5.491       4.390       3.297       2.203       1.105      3.6704E-03
  10    9.997       8.877       7.757       6.637       5.522       4.416       3.313       2.212       1.108      3.6816E-03
1
              HEAD IN LAYER   3 AT END OF TIME STEP   2 IN STRESS PERIOD    3
  ---------------------------------------------------------------------------

            1           2           3           4           5           6           7           8           9          10
 ........................................................................................................................
   1    9.997       8.864       7.729       6.594       5.470       4.372       3.285       2.196       1.102      3.6596E-03
   2    9.997       8.851       7.696       6.533       5.387       4.310       3.251       2.180       1.096      3.6403E-03
   3    9.997       8.822       7.618       6.367       5.129       4.145       3.171       2.147       1.084      3.6022E-03
   4    9.997       8.780       7.486       6.018       4.396       3.795       3.037       2.100       1.070      3.5545E-03
   5    9.997       8.750       7.361       5.509       2.444       3.286       2.912       2.067       1.061      3.5267E-03
   6    9.997       8.781       7.487       6.019       4.397       3.795       3.038       2.101       1.070      3.5553E-03
   7    9.997       8.823       7.620       6.370       5.132       4.148       3.173       2.148       1.085      3.6043E-03
   8    9.997       8.853       7.701       6.539       5.395       4.317       3.256       2.183       1.097      3.6452E-03
   9    9.997       8.870       7.741       6.611       5.491       4.390       3.297       2.203       1.105      3.6704E-03
  10    9.997       8.877       7.757       6.637       5.522       4.416       3.313       2.212       1.108      3.6816E-03

 HEAD WILL BE SAVED ON UNIT   51 AT END OF TIME STEP    2, STRESS PERIOD    3

 DRAWDOWN WILL BE SAVED ON UNIT   52 AT END OF TIME STEP    2, STRESS PERIOD    3
1
  VOLUMETRIC BUDGET FOR ENTIRE MODEL AT END OF TIME STEP    2, STRESS PERIOD   3
  ------------------------------------------------------------------------------

     CUMULATIVE VOLUMES      L**3       RATES FOR THIS TIME STEP      L**3/T
     ------------------                 ------------------------

           IN:                                      IN:
           ---                                      ---
             STORAGE =       25940.9062               STORAGE =         457.3520
       CONSTANT HEAD =           0.0000         CONSTANT HEAD =           0.0000
               WELLS =           0.0000                 WELLS =           0.0000
       RIVER LEAKAGE =       49246.9375         RIVER LEAKAGE =         584.7288

            TOTAL IN =       75187.8438              TOTAL IN =        1042.0808

          OUT:                                     OUT:
          ----                                     ----
             STORAGE =       2.9439E-02               STORAGE =           0.0000
       CONSTANT HEAD =           0.0000         CONSTANT HEAD =           0.0000
               WELLS =        1000.0000                 WELLS =         500.0000
       RIVER LEAKAGE =       74195.0938         RIVER LEAKAGE =         542.0997

           TOTAL OUT =       75195.1250             TOTAL OUT =        1042.0997

            IN - OUT =          -7.2812              IN - OUT =      -1.8921E-02

 PERCENT DISCREPANCY =          -0.01     PERCENT DISCREPANCY =          -0.00






         TIME SUMMARY AT END OF TIME STEP    2 IN STRESS PERIOD    3
                    SECONDS     MINUTES      HOURS       DAYS        YEARS
                    -----------------------------------------------------------
   TIME STEP LENGTH  86400.      1440.0      24.000      1.0000     2.73785E-03
 STRESS PERIOD TIME 1.72800E+05  2880.0      48.000      2.0000     5.47570E-03
         TOTAL TIME 8.89920E+06 1.48320E+05  2472.0      103.00     0.28200    
1

 SOLVING FOR HEAD 

 OUTPUT CONTROL FOR STRESS PERIOD    3   TIME STEP    3
    SAVE HEAD FOR ALL LAYERS
    SAVE DRAWDOWN FOR ALL LAYERS
    SAVE BUDGET
    PRINT HEAD FOR ALL LAYERS
    PRINT BUDGET
 UBDSV1 SAVING "         STORAGE" ON UNIT  53 AT TIME STEP  3, STRESS PERIOD   3
 UBDSV2 SAVING "   CONSTANT HEAD" ON UNIT  53 AT TIME STEP  3, STRESS PERIOD   3
 UBDSV1 SAVING "FLOW RIGHT FACE " ON UNIT  53 AT TIME STEP  3, STRESS PERIOD   3
 UBDSV1 SAVING "FLOW FRONT FACE " ON UNIT  53 AT TIME STEP  3, STRESS PERIOD   3
 UBDSV1 SAVING "FLOW LOWER FACE " ON UNIT  53 AT TIME STEP  3, STRESS PERIOD   3
1
              HEAD IN LAYER   1 AT END OF TIME STEP   3 IN STRESS PERIOD    3
  ---------------------------------------------------------------------------

            1           2           3           4           5           6           7           8           9          10
 ........................................................................................................................
   1    9.997       8.839       7.679       6.523       5.389       4.299       3.230       2.161       1.085      3.6053E-03
   2    9.997       8.816       7.625       6.428       5.266       4.204       3.174       2.134       1.074      3.5698E-03
   3    9.997       8.770       7.506       6.195       4.921       3.969       3.052       2.079       1.054      3.5030E-03
   4    9.996       8.707       7.324       5.750       4.040       3.523       2.866       2.008       1.031      3.4243E-03
   5    9.996       8.666       7.168       5.157       1.244       2.930       2.709       1.962       1.018      3.3820E-03
   6    9.996       8.708       7.325       5.752       4.042       3.526       2.868       2.009       1.031      3.4265E-03
   7    9.997       8.772       7.511       6.201       4.929       3.976       3.057       2.082       1.056      3.5086E-03
   8    9.997       8.822       7.636       6.444       5.283       4.220       3.186       2.141       1.078      3.5822E-03
   9    9.997       8.851       7.704       6.558       5.430       4.335       3.256       2.177       1.093      3.6304E-03
  10    9.997       8.864       7.732       6.603       5.484       4.380       3.286       2.194       1.100      3.6530E-03
1
              HEAD IN LAYER   2 AT END OF TIME STEP   3 IN STRESS PERIOD    3
  ---------------------------------------------------------------------------

            1           2           3           4           5           6           7           8           9          10
 ........................................................................................................................
   1    9.997       8.839       7.679       6.523       5.389       4.299       3.230       2.161       1.085      3.6053E-03
   2    9.997       8.816       7.625       6.428       5.266       4.204       3.174       2.134       1.074      3.5698E-03
   3    9.997       8.770       7.506       6.195       4.922       3.969       3.052       2.079       1.054      3.5030E-03
   4    9.996       8.707       7.324       5.750       4.050       3.524       2.866       2.008       1.031      3.4243E-03
   5    9.996       8.666       7.169       5.168       1.754       2.941       2.710       1.962       1.018      3.3820E-03
   6    9.996       8.708       7.325       5.753       4.053       3.526       2.868       2.009       1.031      3.4265E-03
   7    9.997       8.772       7.511       6.201       4.929       3.976       3.057       2.082       1.056      3.5086E-03
   8    9.997       8.822       7.636       6.444       5.283       4.220       3.186       2.141       1.078      3.5822E-03
   9    9.997       8.851       7.704       6.558       5.430       4.335       3.256       2.177       1.093      3.6304E-03
  10    9.997       8.864       7.732       6.603       5.484       4.380       3.286       2.194       1.100      3.6530E-03
1
              HEAD IN LAYER   3 AT END OF TIME STEP   3 IN STRESS PERIOD    3
  ---------------------------------------------------------------------------

            1           2           3           4           5           6           7           8           9          10
 ........................................................................................................................
   1    9.997       8.839       7.679       6.523       5.389       4.299       3.230       2.161       1.085      3.6053E-03
   2    9.997       8.816       7.625       6.428       5.266       4.204       3.174       2.134       1.074      3.5698E-03
   3    9.997       8.770       7.506       6.195       4.922       3.969       3.052       2.079       1.054      3.5030E-03
   4    9.996       8.707       7.324       5.751       4.058       3.524       2.866       2.008       1.031      3.4243E-03
   5    9.996       8.666       7.169       5.176       1.996       2.949       2.710       1.962       1.018      3.3820E-03
   6    9.996       8.708       7.325       5.753       4.061       3.527       2.868       2.009       1.031      3.4265E-03
   7    9.997       8.772       7.511       6.201       4.929       3.976       3.057       2.082       1.056      3.5086E-03
   8    9.997       8.822       7.636       6.444       5.283       4.220       3.186       2.141       1.078      3.5822E-03
   9    9.997       8.851       7.704       6.558       5.430       4.335       3.256       2.177       1.093      3.6303E-03
  10    9.997       8.864       7.732       6.603       5.484       4.380       3.286       2.194       1.100      3.6530E-03

 HEAD WILL BE SAVED ON UNIT   51 AT END OF TIME STEP    3, STRESS PERIOD    3

 DRAWDOWN WILL BE SAVED ON UNIT   52 AT END OF TIME STEP    3, STRESS PERIOD    3
1
  VOLUMETRIC BUDGET FOR ENTIRE MODEL AT END OF TIME STEP    3, STRESS PERIOD   3
  ------------------------------------------------------------------------------

     CUMULATIVE VOLUMES      L**3       RATES FOR THIS TIME STEP      L**3/T
     ------------------                 ------------------------

           IN:                                      IN:
           ---                                      ---
             STORAGE =       26362.7441               STORAGE =         421.8382
       CONSTANT HEAD =           0.0000         CONSTANT HEAD =           0.0000
               WELLS =           0.0000                 WELLS =           0.0000
       RIVER LEAKAGE =       49854.3398         RIVER LEAKAGE =         607.4005

            TOTAL IN =       76217.0859              TOTAL IN =        1029.2386

          OUT:                                     OUT:
          ----                                     ----
             STORAGE =       2.9439E-02               STORAGE =           0.0000
       CONSTANT HEAD =           0.0000         CONSTANT HEAD =           0.0000
               WELLS =        1500.0000                 WELLS =         500.0000
       RIVER LEAKAGE =       74724.3672         RIVER LEAKAGE =         529.2750

           TOTAL OUT =       76224.3984             TOTAL OUT =        1029.2749

            IN - OUT =          -7.3125              IN - OUT =      -3.6255E-02

 PERCENT DISCREPANCY =          -0.01     PERCENT DISCREPANCY =          -0.00






         TIME SUMMARY AT END OF TIME STEP    3 IN STRESS PERIOD    3
                    SECONDS     MINUTES      HOURS       DAYS        YEARS
                    -----------------------------------------------------------
   TIME STEP LENGTH  86400.      1440.0      24.000      1.0000     2.73785E-03
 STRESS PERIOD TIME 2.59200E+05  4320.0      72.000      3.0000     8.21355E-03
         TOTAL TIME 8.98560E+06 1.49760E+05  2496.0      104.00     0.28474    
1

 SOLVING FOR HEAD 

 OUTPUT CONTROL FOR STRESS PERIOD    3   TIME STEP    4
    SAVE HEAD FOR ALL LAYERS
    SAVE DRAWDOWN FOR ALL LAYERS
    SAVE BUDGET
    PRINT HEAD FOR ALL LAYERS
    PRINT BUDGET
 UBDSV1 SAVING "         STORAGE" ON UNIT  53 AT TIME STEP  4, STRESS PERIOD   3
 UBDSV2 SAVING "   CONSTANT HEAD" ON UNIT  53 AT TIME STEP  4, STRESS PERIOD   3
 UBDSV1 SAVING "FLOW RIGHT FACE " ON UNIT  53 AT TIME STEP  4, STRESS PERIOD   3
 UBDSV1 SAVING "FLOW FRONT FACE " ON UNIT  53 AT TIME STEP  4, STRESS PERIOD   3
 UBDSV1 SAVING "FLOW LOWER FACE " ON UNIT  53 AT TIME STEP  4, STRESS PERIOD   3
1
              HEAD IN LAYER   1 AT END OF TIME STEP   4 IN STRESS PERIOD    3
  ---------------------------------------------------------------------------

            1           2           3           4           5           6           7           8           9          10
 ........................................................................................................................
   1    9.997       8.808       7.618       6.439       5.296       4.212       3.161       2.116       1.063      3.5318E-03
   2    9.997       8.777       7.548       6.320       5.143       4.091       3.087       2.078       1.048      3.4809E-03
   3    9.996       8.716       7.398       6.040       4.743       3.809       2.933       2.005       1.020      3.3879E-03
   4    9.996       8.639       7.183       5.541       3.795       3.309       2.713       1.915      0.9881      3.2832E-03
   5    9.996       8.590       7.011       4.920      0.9606       2.687       2.539       1.861      0.9719      3.2298E-03
   6    9.996       8.640       7.186       5.546       3.800       3.314       2.716       1.918      0.9894      3.2876E-03
   7    9.996       8.721       7.407       6.052       4.757       3.822       2.943       2.012       1.023      3.3991E-03
   8    9.997       8.787       7.567       6.347       5.173       4.119       3.109       2.092       1.055      3.5040E-03
   9    9.997       8.828       7.659       6.497       5.361       4.271       3.206       2.144       1.076      3.5761E-03
  10    9.997       8.847       7.699       6.558       5.434       4.333       3.248       2.168       1.087      3.6111E-03
1
              HEAD IN LAYER   2 AT END OF TIME STEP   4 IN STRESS PERIOD    3
  ---------------------------------------------------------------------------

            1           2           3           4           5           6           7           8           9          10
 ........................................................................................................................
   1    9.997       8.808       7.618       6.439       5.296       4.212       3.161       2.116       1.063      3.5318E-03
   2    9.997       8.777       7.548       6.320       5.143       4.091       3.087       2.078       1.048      3.4809E-03
   3    9.996       8.716       7.398       6.040       4.744       3.809       2.933       2.005       1.020      3.3879E-03
   4    9.996       8.639       7.183       5.541       3.806       3.310       2.713       1.915      0.9881      3.2832E-03
   5    9.996       8.590       7.011       4.930       1.471       2.698       2.539       1.861      0.9719      3.2298E-03
   6    9.996       8.640       7.186       5.546       3.811       3.314       2.716       1.918      0.9894      3.2876E-03
   7    9.996       8.721       7.407       6.052       4.757       3.822       2.943       2.012       1.023      3.3991E-03
   8    9.997       8.787       7.567       6.347       5.173       4.119       3.109       2.092       1.055      3.5040E-03
   9    9.997       8.828       7.659       6.497       5.361       4.271       3.206       2.144       1.076      3.5761E-03
  10    9.997       8.847       7.699       6.558       5.434       4.333       3.248       2.168       1.087      3.6111E-03
1
              HEAD IN LAYER   3 AT END OF TIME STEP   4 IN STRESS PERIOD    3
  ---------------------------------------------------------------------------

            1           2           3           4           5           6           7           8           9          10
 ........................................................................................................................
   1    9.997       8.808       7.618       6.439       5.296       4.212       3.161       2.116       1.063      3.5318E-03
   2    9.997       8.777       7.548       6.320       5.143       4.091       3.087       2.078       1.048      3.4809E-03
   3    9.996       8.716       7.398       6.040       4.744       3.809       2.933       2.005       1.020      3.3879E-03
   4    9.996       8.639       7.183       5.542       3.814       3.310       2.713       1.915      0.9881      3.2832E-03
   5    9.996       8.590       7.012       4.939       1.712       2.706       2.540       1.861      0.9719      3.2298E-03
   6    9.996       8.640       7.186       5.547       3.819       3.315       2.716       1.918      0.9894      3.2876E-03
   7    9.996       8.721       7.407       6.052       4.757       3.822       2.943       2.012       1.023      3.3991E-03
   8    9.997       8.787       7.567       6.347       5.173       4.119       3.109       2.092       1.055      3.5040E-03
   9    9.997       8.828       7.659       6.497       5.361       4.271       3.206       2.144       1.076      3.5761E-03
  10    9.997       8.847       7.699       6.558       5.434       4.333       3.248       2.168       1.087      3.6111E-03

 HEAD WILL BE SAVED ON UNIT   51 AT END OF TIME STEP    4, STRESS PERIOD    3

 DRAWDOWN WILL BE SAVED ON UNIT   52 AT END OF TIME STEP    4, STRESS PERIOD    3
1
  VOLUMETRIC BUDGET FOR ENTIRE MODEL AT END OF TIME STEP    4, STRESS PERIOD   3
  ------------------------------------------------------------------------------

     CUMULATIVE VOLUMES      L**3       RATES FOR THIS TIME STEP      L**3/T
     ------------------                 ------------------------

           IN:                                      IN:
           ---                                      ---
             STORAGE =       26746.5781               STORAGE =         383.8341
       CONSTANT HEAD =           0.0000         CONSTANT HEAD =           0.0000
               WELLS =           0.0000                 WELLS =           0.0000
       RIVER LEAKAGE =       50484.8398         RIVER LEAKAGE =         630.4998

            TOTAL IN =       77231.4219              TOTAL IN =        1014.3339

          OUT:                                     OUT:
          ----                                     ----
             STORAGE =       2.9439E-02               STORAGE =           0.0000
       CONSTANT HEAD =           0.0000         CONSTANT HEAD =           0.0000
               WELLS =        2000.0000                 WELLS =         500.0000
       RIVER LEAKAGE =       75238.7422         RIVER LEAKAGE =         514.3748

           TOTAL OUT =       77238.7734             TOTAL OUT =        1014.3748

            IN - OUT =          -7.3516              IN - OUT =      -4.0955E-02

 PERCENT DISCREPANCY =          -0.01     PERCENT DISCREPANCY =          -0.00






         TIME SUMMARY AT END OF TIME STEP    4 IN STRESS PERIOD    3
                    SECONDS     MINUTES      HOURS       DAYS        YEARS
                    -----------------------------------------------------------
   TIME STEP LENGTH  86400.      1440.0      24.000      1.0000     2.73785E-03
 STRESS PERIOD TIME 3.45600E+05  5760.0      96.000      4.0000     1.09514E-02
         TOTAL TIME 9.07200E+06 1.51200E+05  2520.0      105.00     0.28747    
1

 SOLVING FOR HEAD 

 OUTPUT CONTROL FOR STRESS PERIOD    3   TIME STEP    5
    SAVE HEAD FOR ALL LAYERS
    SAVE DRAWDOWN FOR ALL LAYERS
    SAVE BUDGET
    PRINT HEAD FOR ALL LAYERS
    PRINT BUDGET
 UBDSV1 SAVING "         STORAGE" ON UNIT  53 AT TIME STEP  5, STRESS PERIOD   3
 UBDSV2 SAVING "   CONSTANT HEAD" ON UNIT  53 AT TIME STEP  5, STRESS PERIOD   3
 UBDSV1 SAVING "FLOW RIGHT FACE " ON UNIT  53 AT TIME STEP  5, STRESS PERIOD   3
 UBDSV1 SAVING "FLOW FRONT FACE " ON UNIT  53 AT TIME STEP  5, STRESS PERIOD   3
 UBDSV1 SAVING "FLOW LOWER FACE " ON UNIT  53 AT TIME STEP  5, STRESS PERIOD   3
1
              HEAD IN LAYER   1 AT END OF TIME STEP   5 IN STRESS PERIOD    3
  ---------------------------------------------------------------------------

            1           2           3           4           5           6           7           8           9          10
 ........................................................................................................................
   1    9.997       8.774       7.553       6.351       5.198       4.119       3.086       2.064       1.037      3.4458E-03
   2    9.997       8.737       7.471       6.214       5.025       3.980       2.999       2.018       1.018      3.3822E-03
   3    9.996       8.666       7.301       5.904       4.592       3.668       2.822       1.931      0.9837      3.2685E-03
   4    9.996       8.578       7.064       5.375       3.607       3.136       2.579       1.828      0.9462      3.1441E-03
   5    9.996       8.526       6.884       4.740      0.7562       2.501       2.397       1.769      0.9278      3.0833E-03
   6    9.996       8.581       7.070       5.382       3.616       3.144       2.586       1.833      0.9485      3.1517E-03
   7    9.996       8.673       7.315       5.923       4.613       3.688       2.838       1.942      0.9892      3.2868E-03
   8    9.997       8.752       7.500       6.254       5.070       4.022       3.032       2.040       1.029      3.4186E-03
   9    9.997       8.803       7.611       6.431       5.288       4.202       3.150       2.106       1.057      3.5122E-03
  10    9.997       8.827       7.661       6.507       5.377       4.279       3.204       2.137       1.071      3.5588E-03
1
              HEAD IN LAYER   2 AT END OF TIME STEP   5 IN STRESS PERIOD    3
  ---------------------------------------------------------------------------

            1           2           3           4           5           6           7           8           9          10
 ........................................................................................................................
   1    9.997       8.774       7.553       6.351       5.198       4.119       3.086       2.064       1.037      3.4458E-03
   2    9.997       8.737       7.471       6.214       5.026       3.980       2.999       2.018       1.018      3.3822E-03
   3    9.996       8.666       7.301       5.904       4.592       3.668       2.822       1.931      0.9837      3.2685E-03
   4    9.996       8.578       7.064       5.375       3.618       3.137       2.579       1.828      0.9462      3.1441E-03
   5    9.996       8.526       6.884       4.751       1.266       2.511       2.397       1.769      0.9278      3.0833E-03
   6    9.996       8.581       7.070       5.383       3.626       3.145       2.586       1.833      0.9485      3.1517E-03
   7    9.996       8.673       7.315       5.923       4.613       3.688       2.838       1.942      0.9892      3.2868E-03
   8    9.997       8.752       7.500       6.254       5.070       4.022       3.032       2.040       1.029      3.4186E-03
   9    9.997       8.803       7.611       6.431       5.288       4.202       3.150       2.106       1.057      3.5122E-03
  10    9.997       8.827       7.661       6.507       5.377       4.279       3.204       2.137       1.071      3.5588E-03
1
              HEAD IN LAYER   3 AT END OF TIME STEP   5 IN STRESS PERIOD    3
  ---------------------------------------------------------------------------

            1           2           3           4           5           6           7           8           9          10
 ........................................................................................................................
   1    9.997       8.774       7.553       6.351       5.198       4.119       3.086       2.064       1.037      3.4458E-03
   2    9.997       8.737       7.471       6.214       5.026       3.980       2.999       2.018       1.018      3.3822E-03
   3    9.996       8.666       7.301       5.904       4.592       3.668       2.822       1.931      0.9837      3.2685E-03
   4    9.996       8.578       7.064       5.376       3.626       3.137       2.579       1.828      0.9462      3.1441E-03
   5    9.996       8.526       6.884       4.759       1.508       2.519       2.397       1.769      0.9278      3.0833E-03
   6    9.996       8.581       7.070       5.383       3.635       3.145       2.586       1.833      0.9485      3.1517E-03
   7    9.996       8.673       7.315       5.923       4.613       3.688       2.838       1.942      0.9892      3.2868E-03
   8    9.997       8.752       7.500       6.254       5.070       4.022       3.032       2.040       1.029      3.4186E-03
   9    9.997       8.803       7.611       6.431       5.288       4.202       3.150       2.106       1.057      3.5122E-03
  10    9.997       8.827       7.661       6.507       5.377       4.279       3.204       2.137       1.071      3.5588E-03

 HEAD WILL BE SAVED ON UNIT   51 AT END OF TIME STEP    5, STRESS PERIOD    3

 DRAWDOWN WILL BE SAVED ON UNIT   52 AT END OF TIME STEP    5, STRESS PERIOD    3
1
  VOLUMETRIC BUDGET FOR ENTIRE MODEL AT END OF TIME STEP    5, STRESS PERIOD   3
  ------------------------------------------------------------------------------

     CUMULATIVE VOLUMES      L**3       RATES FOR THIS TIME STEP      L**3/T
     ------------------                 ------------------------

           IN:                                      IN:
           ---                                      ---
             STORAGE =       27092.9863               STORAGE =         346.4086
       CONSTANT HEAD =           0.0000         CONSTANT HEAD =           0.0000
               WELLS =           0.0000                 WELLS =           0.0000
       RIVER LEAKAGE =       51137.1523         RIVER LEAKAGE =         652.3110

            TOTAL IN =       78230.1406              TOTAL IN =         998.7195

          OUT:                                     OUT:
          ----                                     ----
             STORAGE =       2.9439E-02               STORAGE =           0.0000
       CONSTANT HEAD =           0.0000         CONSTANT HEAD =           0.0000
               WELLS =        2500.0000                 WELLS =         500.0000
       RIVER LEAKAGE =       75737.5234         RIVER LEAKAGE =         498.7817

           TOTAL OUT =       78237.5547             TOTAL OUT =         998.7817

            IN - OUT =          -7.4141              IN - OUT =      -6.2195E-02

 PERCENT DISCREPANCY =          -0.01     PERCENT DISCREPANCY =          -0.01






         TIME SUMMARY AT END OF TIME STEP    5 IN STRESS PERIOD    3
                    SECONDS     MINUTES      HOURS       DAYS        YEARS
                    -----------------------------------------------------------
   TIME STEP LENGTH  86400.      1440.0      24.000      1.0000     2.73785E-03
 STRESS PERIOD TIME 4.32000E+05  7200.0      120.00      5.0000     1.36893E-02
         TOTAL TIME 9.15840E+06 1.52640E+05  2544.0      106.00     0.29021    
1

 SOLVING FOR HEAD 

 OUTPUT CONTROL FOR STRESS PERIOD    3   TIME STEP    6
    SAVE HEAD FOR ALL LAYERS
    SAVE DRAWDOWN FOR ALL LAYERS
    SAVE BUDGET
    PRINT HEAD FOR ALL LAYERS
    PRINT BUDGET
 UBDSV1 SAVING "         STORAGE" ON UNIT  53 AT TIME STEP  6, STRESS PERIOD   3
 UBDSV2 SAVING "   CONSTANT HEAD" ON UNIT  53 AT TIME STEP  6, STRESS PERIOD   3
 UBDSV1 SAVING "FLOW RIGHT FACE " ON UNIT  53 AT TIME STEP  6, STRESS PERIOD   3
 UBDSV1 SAVING "FLOW FRONT FACE " ON UNIT  53 AT TIME STEP  6, STRESS PERIOD   3
 UBDSV1 SAVING "FLOW LOWER FACE " ON UNIT  53 AT TIME STEP  6, STRESS PERIOD   3
1
              HEAD IN LAYER   1 AT END OF TIME STEP   6 IN STRESS PERIOD    3
  ---------------------------------------------------------------------------

            1           2           3           4           5           6           7           8           9          10
 ........................................................................................................................
   1    9.997       8.739       7.488       6.264       5.101       4.026       3.009       2.010       1.010      3.3539E-03
   2    9.996       8.698       7.397       6.116       4.916       3.876       2.912       1.958      0.9875      3.2808E-03
   3    9.996       8.620       7.214       5.787       4.461       3.544       2.721       1.862      0.9486      3.1519E-03
   4    9.996       8.526       6.965       5.240       3.456       2.994       2.464       1.750      0.9070      3.0139E-03
   5    9.996       8.472       6.780       4.598      0.5975       2.351       2.277       1.688      0.8872      2.9484E-03
   6    9.996       8.530       6.973       5.251       3.468       3.006       2.474       1.756      0.9104      3.0251E-03
   7    9.996       8.630       7.234       5.814       4.490       3.572       2.744       1.878      0.9566      3.1786E-03
   8    9.996       8.718       7.437       6.169       4.976       3.932       2.958       1.989       1.003      3.3317E-03
   9    9.997       8.777       7.562       6.366       5.216       4.133       3.092       2.065       1.036      3.4432E-03
  10    9.997       8.805       7.620       6.452       5.317       4.221       3.155       2.103       1.053      3.4997E-03
1
              HEAD IN LAYER   2 AT END OF TIME STEP   6 IN STRESS PERIOD    3
  ---------------------------------------------------------------------------

            1           2           3           4           5           6           7           8           9          10
 ........................................................................................................................
   1    9.997       8.739       7.488       6.264       5.101       4.026       3.009       2.010       1.010      3.3539E-03
   2    9.996       8.698       7.397       6.116       4.916       3.876       2.912       1.958      0.9875      3.2808E-03
   3    9.996       8.620       7.214       5.787       4.461       3.544       2.721       1.862      0.9486      3.1519E-03
   4    9.996       8.526       6.965       5.240       3.467       2.995       2.464       1.750      0.9070      3.0139E-03
   5    9.996       8.472       6.780       4.609       1.107       2.362       2.277       1.688      0.8872      2.9484E-03
   6    9.996       8.530       6.973       5.251       3.479       3.006       2.474       1.756      0.9104      3.0251E-03
   7    9.996       8.630       7.234       5.814       4.490       3.572       2.744       1.878      0.9566      3.1786E-03
   8    9.996       8.718       7.437       6.169       4.976       3.932       2.958       1.989       1.003      3.3317E-03
   9    9.997       8.777       7.562       6.366       5.216       4.133       3.092       2.065       1.036      3.4432E-03
  10    9.997       8.805       7.620       6.452       5.317       4.221       3.155       2.103       1.053      3.4997E-03
1
              HEAD IN LAYER   3 AT END OF TIME STEP   6 IN STRESS PERIOD    3
  ---------------------------------------------------------------------------

            1           2           3           4           5           6           7           8           9          10
 ........................................................................................................................
   1    9.997       8.739       7.488       6.264       5.101       4.026       3.009       2.010       1.010      3.3539E-03
   2    9.996       8.698       7.397       6.116       4.916       3.876       2.912       1.958      0.9875      3.2808E-03
   3    9.996       8.620       7.214       5.787       4.461       3.544       2.721       1.862      0.9486      3.1519E-03
   4    9.996       8.526       6.965       5.241       3.475       2.995       2.464       1.750      0.9070      3.0139E-03
   5    9.996       8.472       6.781       4.617       1.349       2.370       2.277       1.688      0.8872      2.9484E-03
   6    9.996       8.530       6.973       5.252       3.487       3.007       2.474       1.756      0.9104      3.0251E-03
   7    9.996       8.630       7.234       5.814       4.491       3.572       2.744       1.878      0.9566      3.1786E-03
   8    9.996       8.718       7.437       6.169       4.976       3.932       2.958       1.989       1.003      3.3317E-03
   9    9.997       8.777       7.562       6.366       5.216       4.133       3.092       2.065       1.036      3.4432E-03
  10    9.997       8.805       7.620       6.452       5.317       4.221       3.155       2.103       1.053      3.4997E-03

 HEAD WILL BE SAVED ON UNIT   51 AT END OF TIME STEP    6, STRESS PERIOD    3

 DRAWDOWN WILL BE SAVED ON UNIT   52 AT END OF TIME STEP    6, STRESS PERIOD    3
1
  VOLUMETRIC BUDGET FOR ENTIRE MODEL AT END OF TIME STEP    6, STRESS PERIOD   3
  ------------------------------------------------------------------------------

     CUMULATIVE VOLUMES      L**3       RATES FOR THIS TIME STEP      L**3/T
     ------------------                 ------------------------

           IN:                                      IN:
           ---                                      ---
             STORAGE =       27404.1250               STORAGE =         311.1393
       CONSTANT HEAD =           0.0000         CONSTANT HEAD =           0.0000
               WELLS =           0.0000                 WELLS =           0.0000
       RIVER LEAKAGE =       51809.3633         RIVER LEAKAGE =         672.2122

            TOTAL IN =       79213.4844              TOTAL IN =         983.3514

          OUT:                                     OUT:
          ----                                     ----
             STORAGE =       2.9439E-02               STORAGE =           0.0000
       CONSTANT HEAD =           0.0000         CONSTANT HEAD =           0.0000
               WELLS =        3000.0000                 WELLS =         500.0000
       RIVER LEAKAGE =       76220.9297         RIVER LEAKAGE =         483.4077

           TOTAL OUT =       79220.9609             TOTAL OUT =         983.4077

            IN - OUT =          -7.4766              IN - OUT =      -5.6213E-02

 PERCENT DISCREPANCY =          -0.01     PERCENT DISCREPANCY =          -0.01






         TIME SUMMARY AT END OF TIME STEP    6 IN STRESS PERIOD    3
                    SECONDS     MINUTES      HOURS       DAYS        YEARS
                    -----------------------------------------------------------
   TIME STEP LENGTH  86400.      1440.0      24.000      1.0000     2.73785E-03
 STRESS PERIOD TIME 5.18400E+05  8640.0      144.00      6.0000     1.64271E-02
         TOTAL TIME 9.24480E+06 1.54080E+05  2568.0      107.00     0.29295    
1

 SOLVING FOR HEAD 

 OUTPUT CONTROL FOR STRESS PERIOD    3   TIME STEP    7
    SAVE HEAD FOR ALL LAYERS
    SAVE DRAWDOWN FOR ALL LAYERS
    SAVE BUDGET
    PRINT HEAD FOR ALL LAYERS
    PRINT BUDGET
 UBDSV1 SAVING "         STORAGE" ON UNIT  53 AT TIME STEP  7, STRESS PERIOD   3
 UBDSV2 SAVING "   CONSTANT HEAD" ON UNIT  53 AT TIME STEP  7, STRESS PERIOD   3
 UBDSV1 SAVING "FLOW RIGHT FACE " ON UNIT  53 AT TIME STEP  7, STRESS PERIOD   3
 UBDSV1 SAVING "FLOW FRONT FACE " ON UNIT  53 AT TIME STEP  7, STRESS PERIOD   3
 UBDSV1 SAVING "FLOW LOWER FACE " ON UNIT  53 AT TIME STEP  7, STRESS PERIOD   3
1
              HEAD IN LAYER   1 AT END OF TIME STEP   7 IN STRESS PERIOD    3
  ---------------------------------------------------------------------------

            1           2           3           4           5           6           7           8           9          10
 ........................................................................................................................
   1    9.996       8.706       7.426       6.181       5.008       3.937       2.933       1.956      0.9816      3.2612E-03
   2    9.996       8.662       7.330       6.025       4.815       3.779       2.831       1.900      0.9576      3.1814E-03
   3    9.996       8.580       7.138       5.685       4.347       3.435       2.630       1.797      0.9156      3.0420E-03
   4    9.996       8.482       6.881       5.128       3.331       2.874       2.365       1.680      0.8712      2.8950E-03
   5    9.996       8.426       6.694       4.483      0.4688       2.228       2.174       1.616      0.8507      2.8271E-03
   6    9.996       8.488       6.892       5.142       3.347       2.890       2.377       1.689      0.8758      2.9104E-03
   7    9.996       8.593       7.163       5.719       4.385       3.471       2.660       1.818      0.9263      3.0776E-03
   8    9.996       8.688       7.379       6.092       4.890       3.849       2.888       1.939      0.9774      3.2472E-03
   9    9.997       8.752       7.515       6.303       5.146       4.065       3.035       2.024       1.015      3.3727E-03
  10    9.997       8.783       7.579       6.398       5.255       4.161       3.104       2.066       1.035      3.4372E-03
1
              HEAD IN LAYER   2 AT END OF TIME STEP   7 IN STRESS PERIOD    3
  ---------------------------------------------------------------------------

            1           2           3           4           5           6           7           8           9          10
 ........................................................................................................................
   1    9.996       8.706       7.426       6.181       5.008       3.937       2.933       1.956      0.9816      3.2612E-03
   2    9.996       8.662       7.330       6.025       4.815       3.779       2.831       1.900      0.9576      3.1814E-03
   3    9.996       8.580       7.138       5.685       4.347       3.435       2.630       1.797      0.9156      3.0420E-03
   4    9.996       8.482       6.882       5.128       3.342       2.875       2.365       1.680      0.8712      2.8950E-03
   5    9.996       8.426       6.695       4.493      0.9787       2.239       2.175       1.616      0.8507      2.8271E-03
   6    9.996       8.488       6.892       5.143       3.358       2.890       2.377       1.689      0.8758      2.9104E-03
   7    9.996       8.593       7.163       5.719       4.386       3.471       2.660       1.818      0.9263      3.0776E-03
   8    9.996       8.688       7.379       6.092       4.890       3.849       2.888       1.939      0.9774      3.2472E-03
   9    9.997       8.752       7.515       6.303       5.146       4.065       3.035       2.024       1.015      3.3727E-03
  10    9.997       8.783       7.579       6.398       5.255       4.161       3.104       2.066       1.035      3.4372E-03
1
              HEAD IN LAYER   3 AT END OF TIME STEP   7 IN STRESS PERIOD    3
  ---------------------------------------------------------------------------

            1           2           3           4           5           6           7           8           9          10
 ........................................................................................................................
   1    9.996       8.706       7.426       6.181       5.008       3.937       2.933       1.956      0.9816      3.2612E-03
   2    9.996       8.662       7.330       6.025       4.815       3.779       2.831       1.900      0.9576      3.1814E-03
   3    9.996       8.580       7.138       5.685       4.348       3.435       2.630       1.797      0.9156      3.0420E-03
   4    9.996       8.482       6.882       5.129       3.350       2.875       2.365       1.680      0.8712      2.8950E-03
   5    9.996       8.426       6.695       4.502       1.221       2.247       2.175       1.616      0.8507      2.8271E-03
   6    9.996       8.488       6.892       5.143       3.366       2.890       2.377       1.689      0.8758      2.9104E-03
   7    9.996       8.593       7.163       5.719       4.386       3.471       2.660       1.818      0.9263      3.0776E-03
   8    9.996       8.688       7.379       6.092       4.890       3.849       2.888       1.939      0.9774      3.2472E-03
   9    9.997       8.752       7.515       6.303       5.146       4.065       3.035       2.024       1.015      3.3727E-03
  10    9.997       8.783       7.579       6.398       5.255       4.161       3.104       2.066       1.035      3.4372E-03

 HEAD WILL BE SAVED ON UNIT   51 AT END OF TIME STEP    7, STRESS PERIOD    3

 DRAWDOWN WILL BE SAVED ON UNIT   52 AT END OF TIME STEP    7, STRESS PERIOD    3
1
  VOLUMETRIC BUDGET FOR ENTIRE MODEL AT END OF TIME STEP    7, STRESS PERIOD   3
  ------------------------------------------------------------------------------

     CUMULATIVE VOLUMES      L**3       RATES FOR THIS TIME STEP      L**3/T
     ------------------                 ------------------------

           IN:                                      IN:
           ---                                      ---
             STORAGE =       27682.8164               STORAGE =         278.6919
       CONSTANT HEAD =           0.0000         CONSTANT HEAD =           0.0000
               WELLS =           0.0000                 WELLS =           0.0000
       RIVER LEAKAGE =       52499.4062         RIVER LEAKAGE =         690.0418

            TOTAL IN =       80182.2188              TOTAL IN =         968.7337

          OUT:                                     OUT:
          ----                                     ----
             STORAGE =       2.9439E-02               STORAGE =           0.0000
       CONSTANT HEAD =           0.0000         CONSTANT HEAD =           0.0000
               WELLS =        3500.0000                 WELLS =         500.0000
       RIVER LEAKAGE =       76689.7109         RIVER LEAKAGE =         468.7788

           TOTAL OUT =       80189.7422             TOTAL OUT =         968.7788

            IN - OUT =          -7.5234              IN - OUT =      -4.5105E-02

 PERCENT DISCREPANCY =          -0.01     PERCENT DISCREPANCY =          -0.00






         TIME SUMMARY AT END OF TIME STEP    7 IN STRESS PERIOD    3
                    SECONDS     MINUTES      HOURS       DAYS        YEARS
                    -----------------------------------------------------------
   TIME STEP LENGTH  86400.      1440.0      24.000      1.0000     2.73785E-03
 STRESS PERIOD TIME 6.04800E+05  10080.      168.00      7.0000     1.91650E-02
         TOTAL TIME 9.33120E+06 1.55520E+05  2592.0      108.00     0.29569    
1

 SOLVING FOR HEAD 

 OUTPUT CONTROL FOR STRESS PERIOD    3   TIME STEP    8
    SAVE HEAD FOR ALL LAYERS
    SAVE DRAWDOWN FOR ALL LAYERS
    SAVE BUDGET
    PRINT HEAD FOR ALL LAYERS
    PRINT BUDGET
 UBDSV1 SAVING "         STORAGE" ON UNIT  53 AT TIME STEP  8, STRESS PERIOD   3
 UBDSV2 SAVING "   CONSTANT HEAD" ON UNIT  53 AT TIME STEP  8, STRESS PERIOD   3
 UBDSV1 SAVING "FLOW RIGHT FACE " ON UNIT  53 AT TIME STEP  8, STRESS PERIOD   3
 UBDSV1 SAVING "FLOW FRONT FACE " ON UNIT  53 AT TIME STEP  8, STRESS PERIOD   3
 UBDSV1 SAVING "FLOW LOWER FACE " ON UNIT  53 AT TIME STEP  8, STRESS PERIOD   3
1
              HEAD IN LAYER   1 AT END OF TIME STEP   8 IN STRESS PERIOD    3
  ---------------------------------------------------------------------------

            1           2           3           4           5           6           7           8           9          10
 ........................................................................................................................
   1    9.996       8.675       7.368       6.104       4.922       3.852       2.861       1.904      0.9546      3.1713E-03
   2    9.996       8.629       7.268       5.944       4.724       3.690       2.755       1.845      0.9291      3.0870E-03
   3    9.996       8.544       7.072       5.596       4.248       3.339       2.548       1.739      0.8851      2.9408E-03
   4    9.996       8.444       6.811       5.033       3.226       2.772       2.278       1.618      0.8390      2.7881E-03
   5    9.996       8.388       6.622       4.387      0.3615       2.124       2.087       1.554      0.8182      2.7192E-03
   6    9.996       8.451       6.824       5.051       3.246       2.791       2.294       1.629      0.8449      2.8077E-03
   7    9.996       8.561       7.103       5.638       4.295       3.383       2.585       1.765      0.8985      2.9853E-03
   8    9.996       8.660       7.327       6.023       4.812       3.774       2.824       1.893      0.9533      3.1672E-03
   9    9.996       8.728       7.471       6.244       5.079       4.000       2.979       1.984      0.9943      3.3034E-03
  10    9.997       8.762       7.539       6.344       5.195       4.103       3.054       2.030       1.016      3.3740E-03
1
              HEAD IN LAYER   2 AT END OF TIME STEP   8 IN STRESS PERIOD    3
  ---------------------------------------------------------------------------

            1           2           3           4           5           6           7           8           9          10
 ........................................................................................................................
   1    9.996       8.675       7.368       6.104       4.922       3.852       2.861       1.904      0.9546      3.1713E-03
   2    9.996       8.629       7.268       5.944       4.724       3.690       2.755       1.845      0.9291      3.0870E-03
   3    9.996       8.544       7.072       5.596       4.248       3.339       2.548       1.739      0.8851      2.9408E-03
   4    9.996       8.444       6.811       5.033       3.236       2.772       2.278       1.618      0.8390      2.7881E-03
   5    9.996       8.388       6.623       4.397      0.8715       2.135       2.087       1.554      0.8182      2.7192E-03
   6    9.996       8.451       6.824       5.051       3.256       2.791       2.294       1.629      0.8449      2.8077E-03
   7    9.996       8.561       7.103       5.638       4.295       3.383       2.585       1.765      0.8985      2.9853E-03
   8    9.996       8.660       7.327       6.023       4.812       3.774       2.824       1.893      0.9533      3.1672E-03
   9    9.996       8.728       7.471       6.244       5.079       4.000       2.979       1.984      0.9943      3.3034E-03
  10    9.997       8.762       7.539       6.344       5.195       4.103       3.054       2.030       1.016      3.3740E-03
1
              HEAD IN LAYER   3 AT END OF TIME STEP   8 IN STRESS PERIOD    3
  ---------------------------------------------------------------------------

            1           2           3           4           5           6           7           8           9          10
 ........................................................................................................................
   1    9.996       8.675       7.368       6.104       4.922       3.852       2.861       1.904      0.9546      3.1713E-03
   2    9.996       8.629       7.268       5.944       4.724       3.690       2.755       1.845      0.9291      3.0870E-03
   3    9.996       8.544       7.072       5.596       4.249       3.339       2.548       1.739      0.8851      2.9408E-03
   4    9.996       8.444       6.811       5.034       3.244       2.773       2.278       1.618      0.8390      2.7881E-03
   5    9.996       8.388       6.623       4.405       1.113       2.143       2.087       1.554      0.8182      2.7192E-03
   6    9.996       8.451       6.824       5.052       3.264       2.792       2.294       1.629      0.8449      2.8077E-03
   7    9.996       8.561       7.103       5.638       4.295       3.383       2.585       1.765      0.8985      2.9853E-03
   8    9.996       8.660       7.327       6.023       4.812       3.774       2.824       1.893      0.9533      3.1672E-03
   9    9.996       8.728       7.471       6.244       5.079       4.000       2.979       1.984      0.9943      3.3033E-03
  10    9.997       8.762       7.539       6.344       5.195       4.103       3.054       2.030       1.016      3.3740E-03

 HEAD WILL BE SAVED ON UNIT   51 AT END OF TIME STEP    8, STRESS PERIOD    3

 DRAWDOWN WILL BE SAVED ON UNIT   52 AT END OF TIME STEP    8, STRESS PERIOD    3
1
  VOLUMETRIC BUDGET FOR ENTIRE MODEL AT END OF TIME STEP    8, STRESS PERIOD   3
  ------------------------------------------------------------------------------

     CUMULATIVE VOLUMES      L**3       RATES FOR THIS TIME STEP      L**3/T
     ------------------                 ------------------------

           IN:                                      IN:
           ---                                      ---
             STORAGE =       27932.0527               STORAGE =         249.2368
       CONSTANT HEAD =           0.0000         CONSTANT HEAD =           0.0000
               WELLS =           0.0000                 WELLS =           0.0000
       RIVER LEAKAGE =       53205.2812         RIVER LEAKAGE =         705.8749

            TOTAL IN =       81137.3359              TOTAL IN =         955.1117

          OUT:                                     OUT:
          ----                                     ----
             STORAGE =       2.9439E-02               STORAGE =           0.0000
       CONSTANT HEAD =           0.0000         CONSTANT HEAD =           0.0000
               WELLS =        4000.0000                 WELLS =         500.0000
       RIVER LEAKAGE =       77144.8672         RIVER LEAKAGE =         455.1595

           TOTAL OUT =       81144.8984             TOTAL OUT =         955.1595

            IN - OUT =          -7.5625              IN - OUT =      -4.7852E-02

 PERCENT DISCREPANCY =          -0.01     PERCENT DISCREPANCY =          -0.01






         TIME SUMMARY AT END OF TIME STEP    8 IN STRESS PERIOD    3
                    SECONDS     MINUTES      HOURS       DAYS        YEARS
                    -----------------------------------------------------------
   TIME STEP LENGTH  86400.      1440.0      24.000      1.0000     2.73785E-03
 STRESS PERIOD TIME 6.91200E+05  11520.      192.00      8.0000     2.19028E-02
         TOTAL TIME 9.41760E+06 1.56960E+05  2616.0      109.00     0.29843    
1

 SOLVING FOR HEAD 

 OUTPUT CONTROL FOR STRESS PERIOD    3   TIME STEP    9
    SAVE HEAD FOR ALL LAYERS
    SAVE DRAWDOWN FOR ALL LAYERS
    SAVE BUDGET
    PRINT HEAD FOR ALL LAYERS
    PRINT BUDGET
 UBDSV1 SAVING "         STORAGE" ON UNIT  53 AT TIME STEP  9, STRESS PERIOD   3
 UBDSV2 SAVING "   CONSTANT HEAD" ON UNIT  53 AT TIME STEP  9, STRESS PERIOD   3
 UBDSV1 SAVING "FLOW RIGHT FACE " ON UNIT  53 AT TIME STEP  9, STRESS PERIOD   3
 UBDSV1 SAVING "FLOW FRONT FACE " ON UNIT  53 AT TIME STEP  9, STRESS PERIOD   3
 UBDSV1 SAVING "FLOW LOWER FACE " ON UNIT  53 AT TIME STEP  9, STRESS PERIOD   3
1
              HEAD IN LAYER   1 AT END OF TIME STEP   9 IN STRESS PERIOD    3
  ---------------------------------------------------------------------------

            1           2           3           4           5           6           7           8           9          10
 ........................................................................................................................
   1    9.996       8.647       7.315       6.033       4.843       3.775       2.794       1.856      0.9290      3.0864E-03
   2    9.996       8.600       7.213       5.870       4.641       3.609       2.686       1.795      0.9027      2.9991E-03
   3    9.996       8.513       7.013       5.519       4.161       3.253       2.475       1.686      0.8574      2.8486E-03
   4    9.996       8.412       6.750       4.952       3.135       2.683       2.202       1.563      0.8103      2.6926E-03
   5    9.995       8.355       6.562       4.305      0.2705       2.035       2.011       1.499      0.7895      2.6237E-03
   6    9.996       8.420       6.766       4.973       3.159       2.706       2.221       1.577      0.8174      2.7163E-03
   7    9.996       8.532       7.050       5.567       4.216       3.306       2.519       1.717      0.8733      2.9017E-03
   8    9.996       8.635       7.280       5.960       4.742       3.705       2.765       1.850      0.9309      3.0927E-03
   9    9.996       8.706       7.429       6.189       5.017       3.939       2.927       1.946      0.9743      3.2369E-03
  10    9.997       8.741       7.500       6.293       5.138       4.046       3.006       1.995      0.9970      3.3121E-03
1
              HEAD IN LAYER   2 AT END OF TIME STEP   9 IN STRESS PERIOD    3
  ---------------------------------------------------------------------------

            1           2           3           4           5           6           7           8           9          10
 ........................................................................................................................
   1    9.996       8.647       7.315       6.033       4.843       3.775       2.794       1.856      0.9290      3.0864E-03
   2    9.996       8.600       7.213       5.870       4.641       3.609       2.686       1.795      0.9027      2.9991E-03
   3    9.996       8.513       7.013       5.519       4.161       3.253       2.475       1.686      0.8574      2.8486E-03
   4    9.996       8.412       6.750       4.952       3.146       2.684       2.202       1.563      0.8103      2.6926E-03
   5    9.995       8.355       6.562       4.316      0.7804       2.046       2.011       1.499      0.7895      2.6237E-03
   6    9.996       8.420       6.766       4.974       3.169       2.706       2.221       1.577      0.8174      2.7163E-03
   7    9.996       8.532       7.050       5.568       4.216       3.306       2.519       1.717      0.8733      2.9017E-03
   8    9.996       8.635       7.280       5.960       4.742       3.705       2.765       1.850      0.9309      3.0927E-03
   9    9.996       8.706       7.429       6.189       5.017       3.939       2.927       1.946      0.9743      3.2369E-03
  10    9.997       8.741       7.500       6.293       5.138       4.046       3.006       1.995      0.9970      3.3121E-03
1
              HEAD IN LAYER   3 AT END OF TIME STEP   9 IN STRESS PERIOD    3
  ---------------------------------------------------------------------------

            1           2           3           4           5           6           7           8           9          10
 ........................................................................................................................
   1    9.996       8.647       7.315       6.033       4.843       3.775       2.794       1.856      0.9290      3.0864E-03
   2    9.996       8.600       7.213       5.870       4.641       3.609       2.686       1.795      0.9027      2.9991E-03
   3    9.996       8.513       7.013       5.519       4.162       3.253       2.475       1.686      0.8574      2.8486E-03
   4    9.996       8.412       6.750       4.953       3.154       2.684       2.202       1.563      0.8103      2.6926E-03
   5    9.995       8.355       6.562       4.324       1.022       2.054       2.011       1.499      0.7895      2.6237E-03
   6    9.996       8.420       6.766       4.974       3.178       2.707       2.221       1.577      0.8174      2.7163E-03
   7    9.996       8.532       7.050       5.568       4.216       3.306       2.519       1.717      0.8733      2.9017E-03
   8    9.996       8.635       7.280       5.960       4.742       3.705       2.765       1.850      0.9309      3.0927E-03
   9    9.996       8.706       7.429       6.189       5.017       3.939       2.927       1.946      0.9743      3.2369E-03
  10    9.997       8.741       7.500       6.293       5.138       4.046       3.006       1.995      0.9970      3.3121E-03

 HEAD WILL BE SAVED ON UNIT   51 AT END OF TIME STEP    9, STRESS PERIOD    3

 DRAWDOWN WILL BE SAVED ON UNIT   52 AT END OF TIME STEP    9, STRESS PERIOD    3
1
  VOLUMETRIC BUDGET FOR ENTIRE MODEL AT END OF TIME STEP    9, STRESS PERIOD   3
  ------------------------------------------------------------------------------

     CUMULATIVE VOLUMES      L**3       RATES FOR THIS TIME STEP      L**3/T
     ------------------                 ------------------------

           IN:                                      IN:
           ---                                      ---
             STORAGE =       28154.7500               STORAGE =         222.6970
       CONSTANT HEAD =           0.0000         CONSTANT HEAD =           0.0000
               WELLS =           0.0000                 WELLS =           0.0000
       RIVER LEAKAGE =       53925.1914         RIVER LEAKAGE =         719.9112

            TOTAL IN =       82079.9375              TOTAL IN =         942.6082

          OUT:                                     OUT:
          ----                                     ----
             STORAGE =       2.9439E-02               STORAGE =           0.0000
       CONSTANT HEAD =           0.0000         CONSTANT HEAD =           0.0000
               WELLS =        4500.0000                 WELLS =         500.0000
       RIVER LEAKAGE =       77587.5234         RIVER LEAKAGE =         442.6531

           TOTAL OUT =       82087.5547             TOTAL OUT =         942.6531

            IN - OUT =          -7.6172              IN - OUT =      -4.4861E-02

 PERCENT DISCREPANCY =          -0.01     PERCENT DISCREPANCY =          -0.00






         TIME SUMMARY AT END OF TIME STEP    9 IN STRESS PERIOD    3
                    SECONDS     MINUTES      HOURS       DAYS        YEARS
                    -----------------------------------------------------------
   TIME STEP LENGTH  86400.      1440.0      24.000      1.0000     2.73785E-03
 STRESS PERIOD TIME 7.77600E+05  12960.      216.00      9.0000     2.46407E-02
         TOTAL TIME 9.50400E+06 1.58400E+05  2640.0      110.00     0.30116    
1

 SOLVING FOR HEAD 

 OUTPUT CONTROL FOR STRESS PERIOD    3   TIME STEP   10
    SAVE HEAD FOR ALL LAYERS
    SAVE DRAWDOWN FOR ALL LAYERS
    SAVE BUDGET
    PRINT HEAD FOR ALL LAYERS
    PRINT BUDGET
 UBDSV1 SAVING "         STORAGE" ON UNIT  53 AT TIME STEP 10, STRESS PERIOD   3
 UBDSV2 SAVING "   CONSTANT HEAD" ON UNIT  53 AT TIME STEP 10, STRESS PERIOD   3
 UBDSV1 SAVING "FLOW RIGHT FACE " ON UNIT  53 AT TIME STEP 10, STRESS PERIOD   3
 UBDSV1 SAVING "FLOW FRONT FACE " ON UNIT  53 AT TIME STEP 10, STRESS PERIOD   3
 UBDSV1 SAVING "FLOW LOWER FACE " ON UNIT  53 AT TIME STEP 10, STRESS PERIOD   3
1
              HEAD IN LAYER   1 AT END OF TIME STEP  10 IN STRESS PERIOD    3
  ---------------------------------------------------------------------------

            1           2           3           4           5           6           7           8           9          10
 ........................................................................................................................
   1    9.996       8.621       7.267       5.969       4.771       3.704       2.733       1.811      0.9053      3.0076E-03
   2    9.996       8.573       7.164       5.804       4.567       3.536       2.623       1.749      0.8785      2.9185E-03
   3    9.996       8.485       6.962       5.450       4.084       3.178       2.410       1.638      0.8323      2.7654E-03
   4    9.996       8.383       6.697       4.882       3.056       2.606       2.135       1.514      0.7847      2.6076E-03
   5    9.995       8.327       6.509       4.235      0.1923       1.959       1.944       1.450      0.7640      2.5392E-03
   6    9.996       8.393       6.716       4.906       3.084       2.632       2.158       1.530      0.7930      2.6352E-03
   7    9.996       8.507       7.003       5.506       4.146       3.238       2.460       1.674      0.8507      2.8264E-03
   8    9.996       8.612       7.238       5.904       4.679       3.643       2.712       1.811      0.9103      3.0242E-03
   9    9.996       8.686       7.391       6.138       4.960       3.883       2.878       1.910      0.9555      3.1743E-03
  10    9.996       8.722       7.465       6.245       5.084       3.993       2.959       1.961      0.9792      3.2529E-03
1
              HEAD IN LAYER   2 AT END OF TIME STEP  10 IN STRESS PERIOD    3
  ---------------------------------------------------------------------------

            1           2           3           4           5           6           7           8           9          10
 ........................................................................................................................
   1    9.996       8.621       7.267       5.969       4.771       3.704       2.733       1.811      0.9053      3.0076E-03
   2    9.996       8.573       7.164       5.804       4.567       3.536       2.623       1.749      0.8785      2.9185E-03
   3    9.996       8.485       6.962       5.450       4.085       3.178       2.410       1.638      0.8323      2.7654E-03
   4    9.996       8.383       6.697       4.882       3.067       2.606       2.135       1.514      0.7847      2.6076E-03
   5    9.995       8.327       6.510       4.246      0.7022       1.969       1.945       1.450      0.7640      2.5392E-03
   6    9.996       8.393       6.716       4.907       3.094       2.633       2.158       1.530      0.7930      2.6352E-03
   7    9.996       8.507       7.003       5.506       4.146       3.238       2.460       1.674      0.8507      2.8264E-03
   8    9.996       8.612       7.238       5.904       4.679       3.643       2.712       1.811      0.9103      3.0242E-03
   9    9.996       8.686       7.391       6.138       4.960       3.883       2.878       1.910      0.9555      3.1743E-03
  10    9.996       8.722       7.465       6.245       5.084       3.993       2.959       1.961      0.9792      3.2529E-03
1
              HEAD IN LAYER   3 AT END OF TIME STEP  10 IN STRESS PERIOD    3
  ---------------------------------------------------------------------------

            1           2           3           4           5           6           7           8           9          10
 ........................................................................................................................
   1    9.996       8.621       7.267       5.969       4.771       3.704       2.733       1.811      0.9053      3.0076E-03
   2    9.996       8.573       7.164       5.804       4.567       3.536       2.623       1.749      0.8785      2.9185E-03
   3    9.996       8.485       6.962       5.450       4.085       3.178       2.410       1.638      0.8323      2.7654E-03
   4    9.996       8.383       6.697       4.883       3.075       2.607       2.135       1.514      0.7847      2.6076E-03
   5    9.995       8.327       6.510       4.254      0.9442       1.977       1.945       1.450      0.7640      2.5392E-03
   6    9.996       8.393       6.716       4.907       3.102       2.633       2.158       1.530      0.7930      2.6352E-03
   7    9.996       8.507       7.003       5.506       4.147       3.238       2.460       1.674      0.8507      2.8264E-03
   8    9.996       8.612       7.238       5.904       4.679       3.643       2.712       1.811      0.9103      3.0242E-03
   9    9.996       8.686       7.391       6.138       4.960       3.883       2.878       1.910      0.9555      3.1743E-03
  10    9.996       8.722       7.465       6.245       5.084       3.993       2.959       1.961      0.9792      3.2529E-03

 HEAD WILL BE SAVED ON UNIT   51 AT END OF TIME STEP   10, STRESS PERIOD    3

 DRAWDOWN WILL BE SAVED ON UNIT   52 AT END OF TIME STEP   10, STRESS PERIOD    3
1
  VOLUMETRIC BUDGET FOR ENTIRE MODEL AT END OF TIME STEP   10, STRESS PERIOD   3
  ------------------------------------------------------------------------------

     CUMULATIVE VOLUMES      L**3       RATES FOR THIS TIME STEP      L**3/T
     ------------------                 ------------------------

           IN:                                      IN:
           ---                                      ---
             STORAGE =       28353.6328               STORAGE =         198.8834
       CONSTANT HEAD =           0.0000         CONSTANT HEAD =           0.0000
               WELLS =           0.0000                 WELLS =           0.0000
       RIVER LEAKAGE =       54657.5273         RIVER LEAKAGE =         732.3375

            TOTAL IN =       83011.1562              TOTAL IN =         931.2209

          OUT:                                     OUT:
          ----                                     ----
             STORAGE =       2.9439E-02               STORAGE =           0.0000
       CONSTANT HEAD =           0.0000         CONSTANT HEAD =           0.0000
               WELLS =        5000.0000                 WELLS =         500.0000
       RIVER LEAKAGE =       78018.7969         RIVER LEAKAGE =         431.2698

           TOTAL OUT =       83018.8281             TOTAL OUT =         931.2698

            IN - OUT =          -7.6719              IN - OUT =      -4.8828E-02

 PERCENT DISCREPANCY =          -0.01     PERCENT DISCREPANCY =          -0.01






         TIME SUMMARY AT END OF TIME STEP   10 IN STRESS PERIOD    3
                    SECONDS     MINUTES      HOURS       DAYS        YEARS
                    -----------------------------------------------------------
   TIME STEP LENGTH  86400.      1440.0      24.000      1.0000     2.73785E-03
 STRESS PERIOD TIME 8.64000E+05  14400.      240.00      10.000     2.73785E-02
         TOTAL TIME 9.59040E+06 1.59840E+05  2664.0      111.00     0.30390    
1

 SOLVING FOR HEAD 

 OUTPUT CONTROL FOR STRESS PERIOD    3   TIME STEP   11
    SAVE HEAD FOR ALL LAYERS
    SAVE DRAWDOWN FOR ALL LAYERS
    SAVE BUDGET
    PRINT HEAD FOR ALL LAYERS
    PRINT BUDGET
 UBDSV1 SAVING "         STORAGE" ON UNIT  53 AT TIME STEP 11, STRESS PERIOD   3
 UBDSV2 SAVING "   CONSTANT HEAD" ON UNIT  53 AT TIME STEP 11, STRESS PERIOD   3
 UBDSV1 SAVING "FLOW RIGHT FACE " ON UNIT  53 AT TIME STEP 11, STRESS PERIOD   3
 UBDSV1 SAVING "FLOW FRONT FACE " ON UNIT  53 AT TIME STEP 11, STRESS PERIOD   3
 UBDSV1 SAVING "FLOW LOWER FACE " ON UNIT  53 AT TIME STEP 11, STRESS PERIOD   3
1
              HEAD IN LAYER   1 AT END OF TIME STEP  11 IN STRESS PERIOD    3
  ---------------------------------------------------------------------------

            1           2           3           4           5           6           7           8           9          10
 ........................................................................................................................
   1    9.996       8.598       7.224       5.911       4.705       3.639       2.677       1.770      0.8836      2.9354E-03
   2    9.996       8.550       7.120       5.745       4.501       3.471       2.566       1.707      0.8564      2.8452E-03
   3    9.996       8.461       6.917       5.390       4.017       3.111       2.352       1.596      0.8098      2.6907E-03
   4    9.995       8.359       6.652       4.821       2.988       2.538       2.077       1.471      0.7620      2.5321E-03
   5    9.995       8.303       6.464       4.175      0.1244       1.892       1.886       1.408      0.7415      2.4644E-03
   6    9.995       8.370       6.672       4.848       3.018       2.568       2.102       1.489      0.7714      2.5632E-03
   7    9.996       8.486       6.963       5.451       4.085       3.177       2.407       1.635      0.8303      2.7587E-03
   8    9.996       8.592       7.201       5.854       4.623       3.587       2.663       1.776      0.8914      2.9616E-03
   9    9.996       8.667       7.356       6.091       4.908       3.831       2.833       1.877      0.9379      3.1160E-03
  10    9.996       8.704       7.431       6.200       5.034       3.944       2.916       1.929      0.9624      3.1972E-03
1
              HEAD IN LAYER   2 AT END OF TIME STEP  11 IN STRESS PERIOD    3
  ---------------------------------------------------------------------------

            1           2           3           4           5           6           7           8           9          10
 ........................................................................................................................
   1    9.996       8.598       7.224       5.911       4.705       3.639       2.677       1.770      0.8836      2.9354E-03
   2    9.996       8.550       7.120       5.745       4.501       3.471       2.566       1.707      0.8564      2.8452E-03
   3    9.996       8.461       6.917       5.390       4.017       3.111       2.352       1.596      0.8098      2.6907E-03
   4    9.995       8.359       6.652       4.821       2.998       2.539       2.077       1.471      0.7620      2.5321E-03
   5    9.995       8.303       6.464       4.186      0.6343       1.902       1.886       1.408      0.7415      2.4644E-03
   6    9.995       8.370       6.672       4.849       3.029       2.568       2.102       1.489      0.7714      2.5632E-03
   7    9.996       8.486       6.963       5.451       4.085       3.177       2.407       1.635      0.8303      2.7587E-03
   8    9.996       8.592       7.201       5.854       4.623       3.587       2.663       1.776      0.8914      2.9616E-03
   9    9.996       8.667       7.356       6.091       4.908       3.831       2.833       1.877      0.9379      3.1160E-03
  10    9.996       8.704       7.431       6.200       5.034       3.944       2.916       1.929      0.9624      3.1972E-03
1
              HEAD IN LAYER   3 AT END OF TIME STEP  11 IN STRESS PERIOD    3
  ---------------------------------------------------------------------------

            1           2           3           4           5           6           7           8           9          10
 ........................................................................................................................
   1    9.996       8.598       7.224       5.911       4.705       3.639       2.677       1.770      0.8836      2.9354E-03
   2    9.996       8.550       7.120       5.745       4.501       3.471       2.566       1.707      0.8564      2.8452E-03
   3    9.996       8.461       6.917       5.390       4.017       3.111       2.352       1.596      0.8098      2.6907E-03
   4    9.995       8.359       6.652       4.822       3.007       2.539       2.077       1.471      0.7620      2.5321E-03
   5    9.995       8.303       6.465       4.194      0.8763       1.910       1.887       1.408      0.7415      2.4644E-03
   6    9.995       8.370       6.672       4.849       3.037       2.569       2.102       1.489      0.7714      2.5632E-03
   7    9.996       8.486       6.963       5.451       4.085       3.177       2.407       1.635      0.8303      2.7587E-03
   8    9.996       8.592       7.201       5.854       4.623       3.587       2.663       1.776      0.8914      2.9616E-03
   9    9.996       8.667       7.356       6.091       4.908       3.831       2.833       1.877      0.9379      3.1160E-03
  10    9.996       8.704       7.431       6.200       5.034       3.944       2.916       1.929      0.9624      3.1972E-03

 HEAD WILL BE SAVED ON UNIT   51 AT END OF TIME STEP   11, STRESS PERIOD    3

 DRAWDOWN WILL BE SAVED ON UNIT   52 AT END OF TIME STEP   11, STRESS PERIOD    3
1
  VOLUMETRIC BUDGET FOR ENTIRE MODEL AT END OF TIME STEP   11, STRESS PERIOD   3
  ------------------------------------------------------------------------------

     CUMULATIVE VOLUMES      L**3       RATES FOR THIS TIME STEP      L**3/T
     ------------------                 ------------------------

           IN:                                      IN:
           ---                                      ---
             STORAGE =       28531.1992               STORAGE =         177.5663
       CONSTANT HEAD =           0.0000         CONSTANT HEAD =           0.0000
               WELLS =           0.0000                 WELLS =           0.0000
       RIVER LEAKAGE =       55400.8711         RIVER LEAKAGE =         743.3431

            TOTAL IN =       83932.0703              TOTAL IN =         920.9094

          OUT:                                     OUT:
          ----                                     ----
             STORAGE =       2.9439E-02               STORAGE =           0.0000
       CONSTANT HEAD =           0.0000         CONSTANT HEAD =           0.0000
               WELLS =        5500.0000                 WELLS =         500.0000
       RIVER LEAKAGE =       78439.7656         RIVER LEAKAGE =         420.9690

           TOTAL OUT =       83939.7969             TOTAL OUT =         920.9690

            IN - OUT =          -7.7266              IN - OUT =      -5.9570E-02

 PERCENT DISCREPANCY =          -0.01     PERCENT DISCREPANCY =          -0.01






         TIME SUMMARY AT END OF TIME STEP   11 IN STRESS PERIOD    3
                    SECONDS     MINUTES      HOURS       DAYS        YEARS
                    -----------------------------------------------------------
   TIME STEP LENGTH  86400.      1440.0      24.000      1.0000     2.73785E-03
 STRESS PERIOD TIME 9.50400E+05  15840.      264.00      11.000     3.01164E-02
         TOTAL TIME 9.67680E+06 1.61280E+05  2688.0      112.00     0.30664    
1

 SOLVING FOR HEAD 

 OUTPUT CONTROL FOR STRESS PERIOD    3   TIME STEP   12
    SAVE HEAD FOR ALL LAYERS
    SAVE DRAWDOWN FOR ALL LAYERS
    SAVE BUDGET
    PRINT HEAD FOR ALL LAYERS
    PRINT BUDGET
 UBDSV1 SAVING "         STORAGE" ON UNIT  53 AT TIME STEP 12, STRESS PERIOD   3
 UBDSV2 SAVING "   CONSTANT HEAD" ON UNIT  53 AT TIME STEP 12, STRESS PERIOD   3
 UBDSV1 SAVING "FLOW RIGHT FACE " ON UNIT  53 AT TIME STEP 12, STRESS PERIOD   3
 UBDSV1 SAVING "FLOW FRONT FACE " ON UNIT  53 AT TIME STEP 12, STRESS PERIOD   3
 UBDSV1 SAVING "FLOW LOWER FACE " ON UNIT  53 AT TIME STEP 12, STRESS PERIOD   3
1
              HEAD IN LAYER   1 AT END OF TIME STEP  12 IN STRESS PERIOD    3
  ---------------------------------------------------------------------------

            1           2           3           4           5           6           7           8           9          10
 ........................................................................................................................
   1    9.996       8.577       7.185       5.859       4.647       3.581       2.626       1.732      0.8638      2.8698E-03
   2    9.996       8.529       7.081       5.693       4.442       3.412       2.515       1.670      0.8365      2.7791E-03
   3    9.996       8.440       6.877       5.337       3.957       3.052       2.300       1.558      0.7897      2.6238E-03
   4    9.995       8.338       6.612       4.768       2.928       2.479       2.025       1.433      0.7418      2.4650E-03
   5    9.995       8.282       6.425       4.122      6.5057E-02   1.833       1.835       1.370      0.7216      2.3981E-03
   6    9.995       8.350       6.634       4.797       2.961       2.511       2.052       1.453      0.7521      2.4992E-03
   7    9.996       8.466       6.927       5.403       4.031       3.123       2.361       1.601      0.8121      2.6981E-03
   8    9.996       8.574       7.167       5.809       4.572       3.537       2.619       1.743      0.8743      2.9048E-03
   9    9.996       8.650       7.325       6.049       4.860       3.784       2.792       1.847      0.9218      3.0624E-03
  10    9.996       8.688       7.401       6.159       4.988       3.898       2.877       1.900      0.9468      3.1454E-03
1
              HEAD IN LAYER   2 AT END OF TIME STEP  12 IN STRESS PERIOD    3
  ---------------------------------------------------------------------------

            1           2           3           4           5           6           7           8           9          10
 ........................................................................................................................
   1    9.996       8.577       7.185       5.859       4.647       3.581       2.626       1.732      0.8638      2.8698E-03
   2    9.996       8.529       7.081       5.693       4.442       3.412       2.515       1.670      0.8365      2.7791E-03
   3    9.996       8.440       6.877       5.337       3.957       3.052       2.300       1.558      0.7897      2.6238E-03
   4    9.995       8.338       6.612       4.768       2.938       2.479       2.025       1.433      0.7418      2.4650E-03
   5    9.995       8.282       6.425       4.133      0.5750       1.843       1.835       1.370      0.7216      2.3981E-03
   6    9.995       8.350       6.634       4.798       2.972       2.512       2.053       1.453      0.7521      2.4992E-03
   7    9.996       8.466       6.927       5.403       4.031       3.124       2.361       1.601      0.8121      2.6981E-03
   8    9.996       8.574       7.167       5.809       4.572       3.537       2.619       1.743      0.8743      2.9048E-03
   9    9.996       8.650       7.325       6.049       4.860       3.784       2.792       1.847      0.9218      3.0624E-03
  10    9.996       8.688       7.401       6.159       4.988       3.898       2.877       1.900      0.9468      3.1454E-03
1
              HEAD IN LAYER   3 AT END OF TIME STEP  12 IN STRESS PERIOD    3
  ---------------------------------------------------------------------------

            1           2           3           4           5           6           7           8           9          10
 ........................................................................................................................
   1    9.996       8.577       7.185       5.859       4.647       3.581       2.626       1.732      0.8638      2.8698E-03
   2    9.996       8.529       7.081       5.693       4.442       3.412       2.515       1.670      0.8365      2.7791E-03
   3    9.996       8.440       6.877       5.337       3.957       3.052       2.300       1.558      0.7897      2.6238E-03
   4    9.995       8.338       6.612       4.769       2.947       2.480       2.025       1.433      0.7418      2.4650E-03
   5    9.995       8.282       6.425       4.141      0.8169       1.852       1.836       1.370      0.7216      2.3981E-03
   6    9.995       8.350       6.634       4.798       2.980       2.512       2.053       1.453      0.7521      2.4992E-03
   7    9.996       8.466       6.927       5.403       4.031       3.124       2.361       1.601      0.8121      2.6981E-03
   8    9.996       8.574       7.167       5.809       4.572       3.537       2.619       1.743      0.8743      2.9047E-03
   9    9.996       8.650       7.325       6.049       4.860       3.784       2.792       1.847      0.9218      3.0624E-03
  10    9.996       8.688       7.401       6.159       4.988       3.898       2.877       1.900      0.9468      3.1454E-03

 HEAD WILL BE SAVED ON UNIT   51 AT END OF TIME STEP   12, STRESS PERIOD    3

 DRAWDOWN WILL BE SAVED ON UNIT   52 AT END OF TIME STEP   12, STRESS PERIOD    3
1
  VOLUMETRIC BUDGET FOR ENTIRE MODEL AT END OF TIME STEP   12, STRESS PERIOD   3
  ------------------------------------------------------------------------------

     CUMULATIVE VOLUMES      L**3       RATES FOR THIS TIME STEP      L**3/T
     ------------------                 ------------------------

           IN:                                      IN:
           ---                                      ---
             STORAGE =       28689.7090               STORAGE =         158.5090
       CONSTANT HEAD =           0.0000         CONSTANT HEAD =           0.0000
               WELLS =           0.0000                 WELLS =           0.0000
       RIVER LEAKAGE =       56154.0039         RIVER LEAKAGE =         753.1324

            TOTAL IN =       84843.7109              TOTAL IN =         911.6414

          OUT:                                     OUT:
          ----                                     ----
             STORAGE =       2.9439E-02               STORAGE =           0.0000
       CONSTANT HEAD =           0.0000         CONSTANT HEAD =           0.0000
               WELLS =        6000.0000                 WELLS =         500.0000
       RIVER LEAKAGE =       78851.4531         RIVER LEAKAGE =         411.6848

           TOTAL OUT =       84851.4844             TOTAL OUT =         911.6848

            IN - OUT =          -7.7734              IN - OUT =      -4.3457E-02

 PERCENT DISCREPANCY =          -0.01     PERCENT DISCREPANCY =          -0.00






         TIME SUMMARY AT END OF TIME STEP   12 IN STRESS PERIOD    3
                    SECONDS     MINUTES      HOURS       DAYS        YEARS
                    -----------------------------------------------------------
   TIME STEP LENGTH  86400.      1440.0      24.000      1.0000     2.73785E-03
 STRESS PERIOD TIME 1.03680E+06  17280.      288.00      12.000     3.28542E-02
         TOTAL TIME 9.76320E+06 1.62720E+05  2712.0      113.00     0.30938    
1

 SOLVING FOR HEAD 

 OUTPUT CONTROL FOR STRESS PERIOD    3   TIME STEP   13
    SAVE HEAD FOR ALL LAYERS
    SAVE DRAWDOWN FOR ALL LAYERS
    SAVE BUDGET
    PRINT HEAD FOR ALL LAYERS
    PRINT BUDGET
 UBDSV1 SAVING "         STORAGE" ON UNIT  53 AT TIME STEP 13, STRESS PERIOD   3
 UBDSV2 SAVING "   CONSTANT HEAD" ON UNIT  53 AT TIME STEP 13, STRESS PERIOD   3
 UBDSV1 SAVING "FLOW RIGHT FACE " ON UNIT  53 AT TIME STEP 13, STRESS PERIOD   3
 UBDSV1 SAVING "FLOW FRONT FACE " ON UNIT  53 AT TIME STEP 13, STRESS PERIOD   3
 UBDSV1 SAVING "FLOW LOWER FACE " ON UNIT  53 AT TIME STEP 13, STRESS PERIOD   3
1
              HEAD IN LAYER   1 AT END OF TIME STEP  13 IN STRESS PERIOD    3
  ---------------------------------------------------------------------------

            1           2           3           4           5           6           7           8           9          10
 ........................................................................................................................
   1    9.996       8.558       7.150       5.813       4.594       3.529       2.581       1.699      0.8460      2.8106E-03
   2    9.996       8.510       7.046       5.646       4.389       3.360       2.469       1.636      0.8186      2.7196E-03
   3    9.996       8.421       6.842       5.290       3.904       2.999       2.254       1.524      0.7717      2.5640E-03
   4    9.995       8.319       6.577       4.721       2.875       2.426       1.979       1.399      0.7238      2.4053E-03
   5    9.995       8.264       6.390       4.076      1.2945E-02   1.781       1.790       1.337      0.7039      2.3394E-03
   6    9.995       8.332       6.601       4.753       2.911       2.461       2.009       1.421      0.7350      2.4424E-03
   7    9.996       8.449       6.895       5.361       3.983       3.076       2.319       1.570      0.7957      2.6438E-03
   8    9.996       8.558       7.137       5.769       4.526       3.492       2.580       1.714      0.8588      2.8533E-03
   9    9.996       8.635       7.296       6.010       4.817       3.740       2.754       1.819      0.9070      3.0133E-03
  10    9.996       8.673       7.373       6.122       4.946       3.856       2.840       1.873      0.9324      3.0976E-03
1
              HEAD IN LAYER   2 AT END OF TIME STEP  13 IN STRESS PERIOD    3
  ---------------------------------------------------------------------------

            1           2           3           4           5           6           7           8           9          10
 ........................................................................................................................
   1    9.996       8.558       7.150       5.813       4.594       3.529       2.581       1.699      0.8460      2.8106E-03
   2    9.996       8.510       7.046       5.646       4.389       3.360       2.469       1.636      0.8186      2.7196E-03
   3    9.996       8.421       6.842       5.290       3.904       2.999       2.254       1.524      0.7717      2.5640E-03
   4    9.995       8.319       6.577       4.721       2.885       2.427       1.979       1.399      0.7238      2.4053E-03
   5    9.995       8.264       6.391       4.087      0.5229       1.792       1.790       1.337      0.7039      2.3394E-03
   6    9.995       8.332       6.601       4.753       2.921       2.461       2.009       1.421      0.7350      2.4424E-03
   7    9.996       8.449       6.895       5.361       3.983       3.076       2.319       1.570      0.7957      2.6438E-03
   8    9.996       8.558       7.137       5.769       4.526       3.492       2.580       1.714      0.8588      2.8533E-03
   9    9.996       8.635       7.296       6.010       4.817       3.740       2.754       1.819      0.9070      3.0133E-03
  10    9.996       8.673       7.373       6.122       4.946       3.856       2.840       1.873      0.9324      3.0976E-03
1
              HEAD IN LAYER   3 AT END OF TIME STEP  13 IN STRESS PERIOD    3
  ---------------------------------------------------------------------------

            1           2           3           4           5           6           7           8           9          10
 ........................................................................................................................
   1    9.996       8.558       7.150       5.813       4.594       3.529       2.581       1.699      0.8460      2.8106E-03
   2    9.996       8.510       7.046       5.646       4.389       3.360       2.469       1.636      0.8186      2.7196E-03
   3    9.996       8.421       6.842       5.290       3.904       2.999       2.254       1.524      0.7717      2.5640E-03
   4    9.995       8.319       6.577       4.722       2.894       2.427       1.979       1.399      0.7238      2.4053E-03
   5    9.995       8.264       6.391       4.095      0.7648       1.800       1.790       1.337      0.7039      2.3394E-03
   6    9.995       8.332       6.601       4.754       2.929       2.462       2.009       1.421      0.7350      2.4424E-03
   7    9.996       8.449       6.895       5.361       3.983       3.076       2.319       1.570      0.7957      2.6438E-03
   8    9.996       8.558       7.137       5.769       4.526       3.492       2.580       1.714      0.8588      2.8532E-03
   9    9.996       8.635       7.296       6.010       4.817       3.740       2.754       1.819      0.9070      3.0132E-03
  10    9.996       8.673       7.373       6.122       4.946       3.856       2.840       1.873      0.9324      3.0976E-03

 HEAD WILL BE SAVED ON UNIT   51 AT END OF TIME STEP   13, STRESS PERIOD    3

 DRAWDOWN WILL BE SAVED ON UNIT   52 AT END OF TIME STEP   13, STRESS PERIOD    3
1
  VOLUMETRIC BUDGET FOR ENTIRE MODEL AT END OF TIME STEP   13, STRESS PERIOD   3
  ------------------------------------------------------------------------------

     CUMULATIVE VOLUMES      L**3       RATES FOR THIS TIME STEP      L**3/T
     ------------------                 ------------------------

           IN:                                      IN:
           ---                                      ---
             STORAGE =       28831.1934               STORAGE =         141.4840
       CONSTANT HEAD =           0.0000         CONSTANT HEAD =           0.0000
               WELLS =           0.0000                 WELLS =           0.0000
       RIVER LEAKAGE =       56915.8125         RIVER LEAKAGE =         761.8077

            TOTAL IN =       85747.0078              TOTAL IN =         903.2917

          OUT:                                     OUT:
          ----                                     ----
             STORAGE =       2.9439E-02               STORAGE =           0.0000
       CONSTANT HEAD =           0.0000         CONSTANT HEAD =           0.0000
               WELLS =        6500.0000                 WELLS =         500.0000
       RIVER LEAKAGE =       79254.7891         RIVER LEAKAGE =         403.3390

           TOTAL OUT =       85754.8203             TOTAL OUT =         903.3390

            IN - OUT =          -7.8125              IN - OUT =      -4.7302E-02

 PERCENT DISCREPANCY =          -0.01     PERCENT DISCREPANCY =          -0.01






         TIME SUMMARY AT END OF TIME STEP   13 IN STRESS PERIOD    3
                    SECONDS     MINUTES      HOURS       DAYS        YEARS
                    -----------------------------------------------------------
   TIME STEP LENGTH  86400.      1440.0      24.000      1.0000     2.73785E-03
 STRESS PERIOD TIME 1.12320E+06  18720.      312.00      13.000     3.55921E-02
         TOTAL TIME 9.84960E+06 1.64160E+05  2736.0      114.00     0.31211    
1

 SOLVING FOR HEAD 

 OUTPUT CONTROL FOR STRESS PERIOD    3   TIME STEP   14
    SAVE HEAD FOR ALL LAYERS
    SAVE DRAWDOWN FOR ALL LAYERS
    SAVE BUDGET
    PRINT HEAD FOR ALL LAYERS
    PRINT BUDGET
 UBDSV1 SAVING "         STORAGE" ON UNIT  53 AT TIME STEP 14, STRESS PERIOD   3
 UBDSV2 SAVING "   CONSTANT HEAD" ON UNIT  53 AT TIME STEP 14, STRESS PERIOD   3
 UBDSV1 SAVING "FLOW RIGHT FACE " ON UNIT  53 AT TIME STEP 14, STRESS PERIOD   3
 UBDSV1 SAVING "FLOW FRONT FACE " ON UNIT  53 AT TIME STEP 14, STRESS PERIOD   3
 UBDSV1 SAVING "FLOW LOWER FACE " ON UNIT  53 AT TIME STEP 14, STRESS PERIOD   3
1
              HEAD IN LAYER   1 AT END OF TIME STEP  14 IN STRESS PERIOD    3
  ---------------------------------------------------------------------------

            1           2           3           4           5           6           7           8           9          10
 ........................................................................................................................
   1    9.996       8.542       7.120       5.771       4.548       3.483       2.540       1.669      0.8300      2.7575E-03
   2    9.996       8.494       7.015       5.605       4.343       3.314       2.429       1.606      0.8026      2.6664E-03
   3    9.996       8.405       6.812       5.250       3.859       2.954       2.214       1.494      0.7558      2.5110E-03
   4    9.995       8.303       6.547       4.683       2.835       2.383       1.940       1.370      0.7080      2.3528E-03
   5    9.995       8.248       6.362       4.042     -4.8622E-03   1.742       1.752       1.308      0.6884      2.2879E-03
   6    9.995       8.317       6.573       4.716       2.873       2.420       1.971       1.393      0.7199      2.3922E-03
   7    9.996       8.435       6.867       5.324       3.942       3.034       2.282       1.543      0.7812      2.5955E-03
   8    9.996       8.544       7.110       5.733       4.486       3.452       2.544       1.688      0.8449      2.8069E-03
   9    9.996       8.621       7.270       5.976       4.777       3.701       2.720       1.794      0.8936      2.9686E-03
  10    9.996       8.659       7.348       6.088       4.907       3.818       2.806       1.848      0.9193      3.0539E-03
1
              HEAD IN LAYER   2 AT END OF TIME STEP  14 IN STRESS PERIOD    3
  ---------------------------------------------------------------------------

            1           2           3           4           5           6           7           8           9          10
 ........................................................................................................................
   1    9.996       8.542       7.120       5.771       4.548       3.483       2.540       1.669      0.8300      2.7575E-03
   2    9.996       8.494       7.015       5.605       4.343       3.314       2.429       1.606      0.8026      2.6664E-03
   3    9.996       8.405       6.812       5.250       3.859       2.954       2.214       1.494      0.7558      2.5110E-03
   4    9.995       8.303       6.547       4.683       2.845       2.383       1.940       1.370      0.7080      2.3528E-03
   5    9.995       8.248       6.362       4.053      0.5002       1.752       1.752       1.308      0.6884      2.2879E-03
   6    9.995       8.317       6.573       4.717       2.883       2.420       1.971       1.393      0.7199      2.3922E-03
   7    9.996       8.435       6.867       5.324       3.942       3.034       2.282       1.543      0.7812      2.5955E-03
   8    9.996       8.544       7.110       5.733       4.486       3.452       2.544       1.688      0.8449      2.8069E-03
   9    9.996       8.621       7.270       5.976       4.777       3.701       2.720       1.794      0.8936      2.9686E-03
  10    9.996       8.659       7.348       6.088       4.907       3.818       2.806       1.848      0.9193      3.0539E-03
1
              HEAD IN LAYER   3 AT END OF TIME STEP  14 IN STRESS PERIOD    3
  ---------------------------------------------------------------------------

            1           2           3           4           5           6           7           8           9          10
 ........................................................................................................................
   1    9.996       8.542       7.120       5.771       4.548       3.483       2.540       1.669      0.8300      2.7575E-03
   2    9.996       8.494       7.015       5.605       4.343       3.314       2.429       1.606      0.8026      2.6664E-03
   3    9.996       8.405       6.812       5.250       3.859       2.954       2.214       1.494      0.7558      2.5110E-03
   4    9.995       8.303       6.548       4.683       2.853       2.384       1.940       1.370      0.7080      2.3528E-03
   5    9.995       8.248       6.362       4.061      0.7400       1.761       1.752       1.308      0.6884      2.2879E-03
   6    9.995       8.317       6.573       4.717       2.891       2.421       1.971       1.393      0.7199      2.3922E-03
   7    9.996       8.435       6.867       5.324       3.942       3.034       2.282       1.543      0.7812      2.5955E-03
   8    9.996       8.544       7.110       5.733       4.486       3.452       2.544       1.688      0.8449      2.8069E-03
   9    9.996       8.621       7.270       5.976       4.777       3.701       2.720       1.794      0.8936      2.9686E-03
  10    9.996       8.659       7.348       6.088       4.907       3.818       2.806       1.848      0.9193      3.0539E-03

 HEAD WILL BE SAVED ON UNIT   51 AT END OF TIME STEP   14, STRESS PERIOD    3

 DRAWDOWN WILL BE SAVED ON UNIT   52 AT END OF TIME STEP   14, STRESS PERIOD    3
1
  VOLUMETRIC BUDGET FOR ENTIRE MODEL AT END OF TIME STEP   14, STRESS PERIOD   3
  ------------------------------------------------------------------------------

     CUMULATIVE VOLUMES      L**3       RATES FOR THIS TIME STEP      L**3/T
     ------------------                 ------------------------

           IN:                                      IN:
           ---                                      ---
             STORAGE =       28957.6152               STORAGE =         126.4216
       CONSTANT HEAD =           0.0000         CONSTANT HEAD =           0.0000
               WELLS =           0.0000                 WELLS =           0.0000
       RIVER LEAKAGE =       57685.2227         RIVER LEAKAGE =         769.4086

            TOTAL IN =       86642.8359              TOTAL IN =         895.8303

          OUT:                                     OUT:
          ----                                     ----
             STORAGE =       2.9439E-02               STORAGE =           0.0000
       CONSTANT HEAD =           0.0000         CONSTANT HEAD =           0.0000
               WELLS =        7000.0000                 WELLS =         500.0000
       RIVER LEAKAGE =       79650.6797         RIVER LEAKAGE =         395.8900

           TOTAL OUT =       86650.7109             TOTAL OUT =         895.8900

            IN - OUT =          -7.8750              IN - OUT =      -5.9692E-02

 PERCENT DISCREPANCY =          -0.01     PERCENT DISCREPANCY =          -0.01






         TIME SUMMARY AT END OF TIME STEP   14 IN STRESS PERIOD    3
                    SECONDS     MINUTES      HOURS       DAYS        YEARS
                    -----------------------------------------------------------
   TIME STEP LENGTH  86400.      1440.0      24.000      1.0000     2.73785E-03
 STRESS PERIOD TIME 1.20960E+06  20160.      336.00      14.000     3.83299E-02
         TOTAL TIME 9.93600E+06 1.65600E+05  2760.0      115.00     0.31485    
1

 SOLVING FOR HEAD 

 OUTPUT CONTROL FOR STRESS PERIOD    3   TIME STEP   15
    SAVE HEAD FOR ALL LAYERS
    SAVE DRAWDOWN FOR ALL LAYERS
    SAVE BUDGET
    PRINT HEAD FOR ALL LAYERS
    PRINT BUDGET
 UBDSV1 SAVING "         STORAGE" ON UNIT  53 AT TIME STEP 15, STRESS PERIOD   3
 UBDSV2 SAVING "   CONSTANT HEAD" ON UNIT  53 AT TIME STEP 15, STRESS PERIOD   3
 UBDSV1 SAVING "FLOW RIGHT FACE " ON UNIT  53 AT TIME STEP 15, STRESS PERIOD   3
 UBDSV1 SAVING "FLOW FRONT FACE " ON UNIT  53 AT TIME STEP 15, STRESS PERIOD   3
 UBDSV1 SAVING "FLOW LOWER FACE " ON UNIT  53 AT TIME STEP 15, STRESS PERIOD   3
1
              HEAD IN LAYER   1 AT END OF TIME STEP  15 IN STRESS PERIOD    3
  ---------------------------------------------------------------------------

            1           2           3           4           5           6           7           8           9          10
 ........................................................................................................................
   1    9.996       8.527       7.093       5.735       4.507       3.442       2.504       1.642      0.8158      2.7102E-03
   2    9.996       8.479       6.989       5.569       4.303       3.273       2.393       1.579      0.7884      2.6193E-03
   3    9.996       8.391       6.786       5.216       3.821       2.915       2.179       1.468      0.7417      2.4643E-03
   4    9.995       8.289       6.523       4.652       2.803       2.347       1.906       1.344      0.6942      2.3069E-03
   5    9.995       8.235       6.339       4.017     -1.3725E-02   1.712       1.720       1.283      0.6750      2.2431E-03
   6    9.995       8.304       6.549       4.687       2.843       2.386       1.939       1.368      0.7067      2.3485E-03
   7    9.996       8.422       6.844       5.293       3.907       2.999       2.251       1.519      0.7684      2.5529E-03
   8    9.996       8.531       7.087       5.702       4.451       3.416       2.513       1.665      0.8324      2.7655E-03
   9    9.996       8.609       7.247       5.945       4.742       3.667       2.689       1.771      0.8814      2.9283E-03
  10    9.996       8.647       7.325       6.058       4.873       3.783       2.776       1.826      0.9073      3.0143E-03
1
              HEAD IN LAYER   2 AT END OF TIME STEP  15 IN STRESS PERIOD    3
  ---------------------------------------------------------------------------

            1           2           3           4           5           6           7           8           9          10
 ........................................................................................................................
   1    9.996       8.527       7.093       5.735       4.507       3.442       2.504       1.642      0.8158      2.7102E-03
   2    9.996       8.479       6.989       5.569       4.303       3.273       2.393       1.579      0.7884      2.6193E-03
   3    9.996       8.391       6.786       5.216       3.821       2.915       2.179       1.468      0.7417      2.4643E-03
   4    9.995       8.289       6.523       4.652       2.814       2.348       1.906       1.344      0.6942      2.3069E-03
   5    9.995       8.235       6.339       4.027      0.4873       1.722       1.720       1.283      0.6750      2.2431E-03
   6    9.995       8.304       6.549       4.688       2.854       2.387       1.939       1.368      0.7067      2.3485E-03
   7    9.996       8.422       6.844       5.293       3.907       2.999       2.251       1.519      0.7684      2.5529E-03
   8    9.996       8.531       7.087       5.702       4.451       3.416       2.513       1.665      0.8324      2.7655E-03
   9    9.996       8.609       7.247       5.945       4.742       3.667       2.689       1.771      0.8814      2.9283E-03
  10    9.996       8.647       7.325       6.058       4.873       3.783       2.776       1.826      0.9073      3.0143E-03
1
              HEAD IN LAYER   3 AT END OF TIME STEP  15 IN STRESS PERIOD    3
  ---------------------------------------------------------------------------

            1           2           3           4           5           6           7           8           9          10
 ........................................................................................................................
   1    9.996       8.527       7.093       5.735       4.507       3.442       2.504       1.642      0.8158      2.7102E-03
   2    9.996       8.479       6.989       5.569       4.303       3.273       2.393       1.579      0.7884      2.6193E-03
   3    9.996       8.391       6.786       5.216       3.821       2.915       2.179       1.468      0.7417      2.4643E-03
   4    9.995       8.289       6.523       4.653       2.822       2.348       1.906       1.344      0.6942      2.3069E-03
   5    9.995       8.235       6.339       4.035      0.7251       1.730       1.721       1.283      0.6750      2.2431E-03
   6    9.995       8.304       6.549       4.688       2.862       2.387       1.939       1.368      0.7067      2.3485E-03
   7    9.996       8.422       6.844       5.293       3.908       2.999       2.251       1.519      0.7684      2.5529E-03
   8    9.996       8.531       7.087       5.702       4.451       3.416       2.513       1.665      0.8324      2.7655E-03
   9    9.996       8.609       7.247       5.945       4.742       3.667       2.689       1.771      0.8814      2.9283E-03
  10    9.996       8.647       7.325       6.058       4.873       3.783       2.776       1.826      0.9073      3.0143E-03

 HEAD WILL BE SAVED ON UNIT   51 AT END OF TIME STEP   15, STRESS PERIOD    3

 DRAWDOWN WILL BE SAVED ON UNIT   52 AT END OF TIME STEP   15, STRESS PERIOD    3
1
  VOLUMETRIC BUDGET FOR ENTIRE MODEL AT END OF TIME STEP   15, STRESS PERIOD   3
  ------------------------------------------------------------------------------

     CUMULATIVE VOLUMES      L**3       RATES FOR THIS TIME STEP      L**3/T
     ------------------                 ------------------------

           IN:                                      IN:
           ---                                      ---
             STORAGE =       29070.8496               STORAGE =         113.2338
       CONSTANT HEAD =           0.0000         CONSTANT HEAD =           0.0000
               WELLS =           0.0000                 WELLS =           0.0000
       RIVER LEAKAGE =       58461.2422         RIVER LEAKAGE =         776.0204

            TOTAL IN =       87532.0938              TOTAL IN =         889.2542

          OUT:                                     OUT:
          ----                                     ----
             STORAGE =       2.9439E-02               STORAGE =           0.0000
       CONSTANT HEAD =           0.0000         CONSTANT HEAD =           0.0000
               WELLS =        7500.0000                 WELLS =         500.0000
       RIVER LEAKAGE =       80039.9766         RIVER LEAKAGE =         389.2997

           TOTAL OUT =       87540.0078             TOTAL OUT =         889.2997

            IN - OUT =          -7.9141              IN - OUT =      -4.5532E-02

 PERCENT DISCREPANCY =          -0.01     PERCENT DISCREPANCY =          -0.01






         TIME SUMMARY AT END OF TIME STEP   15 IN STRESS PERIOD    3
                    SECONDS     MINUTES      HOURS       DAYS        YEARS
                    -----------------------------------------------------------
   TIME STEP LENGTH  86400.      1440.0      24.000      1.0000     2.73785E-03
 STRESS PERIOD TIME 1.29600E+06  21600.      360.00      15.000     4.10678E-02
         TOTAL TIME 1.00224E+07 1.67040E+05  2784.0      116.00     0.31759    
1

 SOLVING FOR HEAD 

 OUTPUT CONTROL FOR STRESS PERIOD    3   TIME STEP   16
    SAVE HEAD FOR ALL LAYERS
    SAVE DRAWDOWN FOR ALL LAYERS
    SAVE BUDGET
    PRINT HEAD FOR ALL LAYERS
    PRINT BUDGET
 UBDSV1 SAVING "         STORAGE" ON UNIT  53 AT TIME STEP 16, STRESS PERIOD   3
 UBDSV2 SAVING "   CONSTANT HEAD" ON UNIT  53 AT TIME STEP 16, STRESS PERIOD   3
 UBDSV1 SAVING "FLOW RIGHT FACE " ON UNIT  53 AT TIME STEP 16, STRESS PERIOD   3
 UBDSV1 SAVING "FLOW FRONT FACE " ON UNIT  53 AT TIME STEP 16, STRESS PERIOD   3
 UBDSV1 SAVING "FLOW LOWER FACE " ON UNIT  53 AT TIME STEP 16, STRESS PERIOD   3
1
              HEAD IN LAYER   1 AT END OF TIME STEP  16 IN STRESS PERIOD    3
  ---------------------------------------------------------------------------

            1           2           3           4           5           6           7           8           9          10
 ........................................................................................................................
   1    9.996       8.515       7.069       5.703       4.471       3.406       2.473       1.619      0.8032      2.6684E-03
   2    9.996       8.467       6.965       5.539       4.268       3.238       2.362       1.556      0.7760      2.5779E-03
   3    9.996       8.379       6.764       5.187       3.789       2.882       2.149       1.445      0.7295      2.4236E-03
   4    9.995       8.278       6.502       4.626       2.777       2.317       1.878       1.322      0.6823      2.2673E-03
   5    9.995       8.224       6.320       3.995     -2.4925E-02   1.686       1.693       1.262      0.6633      2.2045E-03
   6    9.995       8.293       6.530       4.663       2.818       2.358       1.912       1.347      0.6953      2.3105E-03
   7    9.996       8.411       6.823       5.266       3.878       2.969       2.223       1.498      0.7571      2.5155E-03
   8    9.996       8.520       7.066       5.674       4.420       3.385       2.485       1.644      0.8214      2.7288E-03
   9    9.996       8.598       7.227       5.918       4.711       3.636       2.662       1.751      0.8706      2.8922E-03
  10    9.996       8.636       7.305       6.030       4.842       3.752       2.749       1.805      0.8966      2.9785E-03
1
              HEAD IN LAYER   2 AT END OF TIME STEP  16 IN STRESS PERIOD    3
  ---------------------------------------------------------------------------

            1           2           3           4           5           6           7           8           9          10
 ........................................................................................................................
   1    9.996       8.515       7.069       5.703       4.471       3.406       2.473       1.619      0.8032      2.6684E-03
   2    9.996       8.467       6.965       5.539       4.268       3.238       2.362       1.556      0.7760      2.5779E-03
   3    9.996       8.379       6.764       5.187       3.789       2.882       2.149       1.445      0.7295      2.4236E-03
   4    9.995       8.278       6.502       4.627       2.787       2.318       1.878       1.322      0.6823      2.2673E-03
   5    9.995       8.224       6.320       4.005      0.4736       1.696       1.694       1.262      0.6633      2.2045E-03
   6    9.995       8.293       6.530       4.663       2.829       2.358       1.912       1.347      0.6953      2.3105E-03
   7    9.996       8.411       6.823       5.266       3.878       2.969       2.223       1.498      0.7571      2.5155E-03
   8    9.996       8.520       7.066       5.674       4.420       3.385       2.485       1.644      0.8214      2.7288E-03
   9    9.996       8.598       7.227       5.918       4.711       3.636       2.662       1.751      0.8706      2.8922E-03
  10    9.996       8.636       7.305       6.030       4.842       3.752       2.749       1.805      0.8966      2.9785E-03
1
              HEAD IN LAYER   3 AT END OF TIME STEP  16 IN STRESS PERIOD    3
  ---------------------------------------------------------------------------

            1           2           3           4           5           6           7           8           9          10
 ........................................................................................................................
   1    9.996       8.515       7.069       5.703       4.471       3.406       2.473       1.619      0.8032      2.6684E-03
   2    9.996       8.467       6.965       5.539       4.268       3.238       2.362       1.556      0.7760      2.5779E-03
   3    9.996       8.379       6.764       5.187       3.789       2.882       2.149       1.445      0.7295      2.4236E-03
   4    9.995       8.278       6.502       4.627       2.795       2.318       1.878       1.322      0.6823      2.2673E-03
   5    9.995       8.224       6.320       4.013      0.7104       1.704       1.694       1.262      0.6633      2.2045E-03
   6    9.995       8.293       6.530       4.664       2.837       2.359       1.912       1.347      0.6953      2.3105E-03
   7    9.996       8.411       6.823       5.266       3.878       2.969       2.223       1.498      0.7571      2.5155E-03
   8    9.996       8.520       7.066       5.674       4.420       3.385       2.485       1.644      0.8214      2.7288E-03
   9    9.996       8.598       7.227       5.918       4.711       3.636       2.662       1.751      0.8706      2.8922E-03
  10    9.996       8.636       7.305       6.030       4.842       3.752       2.749       1.805      0.8966      2.9785E-03

 HEAD WILL BE SAVED ON UNIT   51 AT END OF TIME STEP   16, STRESS PERIOD    3

 DRAWDOWN WILL BE SAVED ON UNIT   52 AT END OF TIME STEP   16, STRESS PERIOD    3
1
  VOLUMETRIC BUDGET FOR ENTIRE MODEL AT END OF TIME STEP   16, STRESS PERIOD   3
  ------------------------------------------------------------------------------

     CUMULATIVE VOLUMES      L**3       RATES FOR THIS TIME STEP      L**3/T
     ------------------                 ------------------------

           IN:                                      IN:
           ---                                      ---
             STORAGE =       29172.5977               STORAGE =         101.7473
       CONSTANT HEAD =           0.0000         CONSTANT HEAD =           0.0000
               WELLS =           0.0000                 WELLS =           0.0000
       RIVER LEAKAGE =       59242.9492         RIVER LEAKAGE =         781.7078

            TOTAL IN =       88415.5469              TOTAL IN =         883.4551

          OUT:                                     OUT:
          ----                                     ----
             STORAGE =       2.9439E-02               STORAGE =           0.0000
       CONSTANT HEAD =           0.0000         CONSTANT HEAD =           0.0000
               WELLS =        8000.0000                 WELLS =         500.0000
       RIVER LEAKAGE =       80423.4844         RIVER LEAKAGE =         383.5071

           TOTAL OUT =       88423.5156             TOTAL OUT =         883.5071

            IN - OUT =          -7.9688              IN - OUT =      -5.2002E-02

 PERCENT DISCREPANCY =          -0.01     PERCENT DISCREPANCY =          -0.01






         TIME SUMMARY AT END OF TIME STEP   16 IN STRESS PERIOD    3
                    SECONDS     MINUTES      HOURS       DAYS        YEARS
                    -----------------------------------------------------------
   TIME STEP LENGTH  86400.      1440.0      24.000      1.0000     2.73785E-03
 STRESS PERIOD TIME 1.38240E+06  23040.      384.00      16.000     4.38056E-02
         TOTAL TIME 1.01088E+07 1.68480E+05  2808.0      117.00     0.32033    
1

 SOLVING FOR HEAD 

 OUTPUT CONTROL FOR STRESS PERIOD    3   TIME STEP   17
    SAVE HEAD FOR ALL LAYERS
    SAVE DRAWDOWN FOR ALL LAYERS
    SAVE BUDGET
    PRINT HEAD FOR ALL LAYERS
    PRINT BUDGET
 UBDSV1 SAVING "         STORAGE" ON UNIT  53 AT TIME STEP 17, STRESS PERIOD   3
 UBDSV2 SAVING "   CONSTANT HEAD" ON UNIT  53 AT TIME STEP 17, STRESS PERIOD   3
 UBDSV1 SAVING "FLOW RIGHT FACE " ON UNIT  53 AT TIME STEP 17, STRESS PERIOD   3
 UBDSV1 SAVING "FLOW FRONT FACE " ON UNIT  53 AT TIME STEP 17, STRESS PERIOD   3
 UBDSV1 SAVING "FLOW LOWER FACE " ON UNIT  53 AT TIME STEP 17, STRESS PERIOD   3
1
              HEAD IN LAYER   1 AT END OF TIME STEP  17 IN STRESS PERIOD    3
  ---------------------------------------------------------------------------

            1           2           3           4           5           6           7           8           9          10
 ........................................................................................................................
   1    9.996       8.504       7.049       5.676       4.440       3.375       2.445       1.598      0.7922      2.6317E-03
   2    9.996       8.456       6.945       5.512       4.238       3.208       2.335       1.536      0.7651      2.5416E-03
   3    9.995       8.369       6.745       5.162       3.761       2.853       2.123       1.425      0.7188      2.3882E-03
   4    9.995       8.268       6.485       4.604       2.754       2.292       1.853       1.303      0.6720      2.2329E-03
   5    9.995       8.215       6.303       3.976     -3.7683E-02   1.663       1.670       1.244      0.6533      2.1711E-03
   6    9.995       8.283       6.513       4.642       2.796       2.333       1.889       1.329      0.6854      2.2776E-03
   7    9.996       8.401       6.806       5.244       3.852       2.942       2.199       1.480      0.7473      2.4829E-03
   8    9.996       8.511       7.048       5.651       4.393       3.358       2.461       1.626      0.8116      2.6964E-03
   9    9.996       8.588       7.209       5.893       4.684       3.608       2.638       1.732      0.8609      2.8600E-03
  10    9.996       8.627       7.287       6.006       4.814       3.725       2.725       1.787      0.8870      2.9465E-03
1
              HEAD IN LAYER   2 AT END OF TIME STEP  17 IN STRESS PERIOD    3
  ---------------------------------------------------------------------------

            1           2           3           4           5           6           7           8           9          10
 ........................................................................................................................
   1    9.996       8.504       7.049       5.676       4.440       3.375       2.445       1.598      0.7922      2.6317E-03
   2    9.996       8.456       6.945       5.512       4.238       3.208       2.335       1.536      0.7651      2.5416E-03
   3    9.995       8.369       6.745       5.162       3.761       2.853       2.123       1.425      0.7188      2.3882E-03
   4    9.995       8.268       6.485       4.604       2.764       2.292       1.853       1.303      0.6720      2.2329E-03
   5    9.995       8.215       6.304       3.987      0.4592       1.674       1.670       1.244      0.6533      2.1711E-03
   6    9.995       8.283       6.513       4.642       2.807       2.334       1.889       1.329      0.6854      2.2776E-03
   7    9.996       8.401       6.806       5.244       3.853       2.942       2.199       1.480      0.7473      2.4829E-03
   8    9.996       8.511       7.048       5.651       4.393       3.358       2.461       1.626      0.8116      2.6964E-03
   9    9.996       8.588       7.209       5.893       4.684       3.608       2.638       1.732      0.8609      2.8600E-03
  10    9.996       8.627       7.287       6.006       4.814       3.725       2.725       1.787      0.8870      2.9465E-03
1
              HEAD IN LAYER   3 AT END OF TIME STEP  17 IN STRESS PERIOD    3
  ---------------------------------------------------------------------------

            1           2           3           4           5           6           7           8           9          10
 ........................................................................................................................
   1    9.996       8.504       7.049       5.676       4.440       3.375       2.445       1.598      0.7922      2.6317E-03
   2    9.996       8.456       6.945       5.512       4.238       3.208       2.335       1.536      0.7651      2.5416E-03
   3    9.995       8.369       6.745       5.162       3.761       2.853       2.123       1.425      0.7188      2.3882E-03
   4    9.995       8.268       6.485       4.605       2.772       2.293       1.853       1.303      0.6720      2.2329E-03
   5    9.995       8.215       6.304       3.995      0.6952       1.682       1.671       1.244      0.6533      2.1711E-03
   6    9.995       8.283       6.513       4.643       2.815       2.334       1.889       1.329      0.6854      2.2776E-03
   7    9.996       8.401       6.806       5.244       3.853       2.942       2.199       1.480      0.7473      2.4829E-03
   8    9.996       8.511       7.048       5.651       4.393       3.358       2.461       1.626      0.8116      2.6963E-03
   9    9.996       8.588       7.209       5.893       4.684       3.608       2.638       1.732      0.8609      2.8600E-03
  10    9.996       8.627       7.287       6.006       4.814       3.725       2.725       1.787      0.8870      2.9465E-03

 HEAD WILL BE SAVED ON UNIT   51 AT END OF TIME STEP   17, STRESS PERIOD    3

 DRAWDOWN WILL BE SAVED ON UNIT   52 AT END OF TIME STEP   17, STRESS PERIOD    3
1
  VOLUMETRIC BUDGET FOR ENTIRE MODEL AT END OF TIME STEP   17, STRESS PERIOD   3
  ------------------------------------------------------------------------------

     CUMULATIVE VOLUMES      L**3       RATES FOR THIS TIME STEP      L**3/T
     ------------------                 ------------------------

           IN:                                      IN:
           ---                                      ---
             STORAGE =       29264.3496               STORAGE =          91.7516
       CONSTANT HEAD =           0.0000         CONSTANT HEAD =           0.0000
               WELLS =           0.0000                 WELLS =           0.0000
       RIVER LEAKAGE =       60029.5781         RIVER LEAKAGE =         786.6295

            TOTAL IN =       89293.9297              TOTAL IN =         878.3810

          OUT:                                     OUT:
          ----                                     ----
             STORAGE =       2.9439E-02               STORAGE =           0.0000
       CONSTANT HEAD =           0.0000         CONSTANT HEAD =           0.0000
               WELLS =        8500.0000                 WELLS =         500.0000
       RIVER LEAKAGE =       80801.9141         RIVER LEAKAGE =         378.4335

           TOTAL OUT =       89301.9453             TOTAL OUT =         878.4335

            IN - OUT =          -8.0156              IN - OUT =      -5.2429E-02

 PERCENT DISCREPANCY =          -0.01     PERCENT DISCREPANCY =          -0.01






         TIME SUMMARY AT END OF TIME STEP   17 IN STRESS PERIOD    3
                    SECONDS     MINUTES      HOURS       DAYS        YEARS
                    -----------------------------------------------------------
   TIME STEP LENGTH  86400.      1440.0      24.000      1.0000     2.73785E-03
 STRESS PERIOD TIME 1.46880E+06  24480.      408.00      17.000     4.65435E-02
         TOTAL TIME 1.01952E+07 1.69920E+05  2832.0      118.00     0.32307    
1

 SOLVING FOR HEAD 

 OUTPUT CONTROL FOR STRESS PERIOD    3   TIME STEP   18
    SAVE HEAD FOR ALL LAYERS
    SAVE DRAWDOWN FOR ALL LAYERS
    SAVE BUDGET
    PRINT HEAD FOR ALL LAYERS
    PRINT BUDGET
 UBDSV1 SAVING "         STORAGE" ON UNIT  53 AT TIME STEP 18, STRESS PERIOD   3
 UBDSV2 SAVING "   CONSTANT HEAD" ON UNIT  53 AT TIME STEP 18, STRESS PERIOD   3
 UBDSV1 SAVING "FLOW RIGHT FACE " ON UNIT  53 AT TIME STEP 18, STRESS PERIOD   3
 UBDSV1 SAVING "FLOW FRONT FACE " ON UNIT  53 AT TIME STEP 18, STRESS PERIOD   3
 UBDSV1 SAVING "FLOW LOWER FACE " ON UNIT  53 AT TIME STEP 18, STRESS PERIOD   3
1
              HEAD IN LAYER   1 AT END OF TIME STEP  18 IN STRESS PERIOD    3
  ---------------------------------------------------------------------------

            1           2           3           4           5           6           7           8           9          10
 ........................................................................................................................
   1    9.996       8.494       7.031       5.652       4.413       3.347       2.421       1.580      0.7825      2.5995E-03
   2    9.996       8.447       6.928       5.489       4.211       3.181       2.311       1.518      0.7555      2.5100E-03
   3    9.995       8.360       6.729       5.140       3.736       2.828       2.100       1.408      0.7095      2.3574E-03
   4    9.995       8.260       6.470       4.585       2.733       2.269       1.832       1.287      0.6630      2.2032E-03
   5    9.995       8.207       6.289       3.959     -5.1455E-02   1.643       1.650       1.228      0.6446      2.1422E-03
   6    9.995       8.275       6.499       4.623       2.777       2.312       1.869       1.313      0.6768      2.2491E-03
   7    9.996       8.393       6.791       5.224       3.830       2.919       2.178       1.464      0.7387      2.4543E-03
   8    9.996       8.502       7.033       5.630       4.369       3.334       2.440       1.610      0.8030      2.6678E-03
   9    9.996       8.579       7.193       5.872       4.660       3.584       2.616       1.716      0.8523      2.8314E-03
  10    9.996       8.618       7.271       5.985       4.790       3.700       2.703       1.771      0.8784      2.9180E-03
1
              HEAD IN LAYER   2 AT END OF TIME STEP  18 IN STRESS PERIOD    3
  ---------------------------------------------------------------------------

            1           2           3           4           5           6           7           8           9          10
 ........................................................................................................................
   1    9.996       8.494       7.031       5.652       4.413       3.347       2.421       1.580      0.7825      2.5996E-03
   2    9.996       8.447       6.928       5.489       4.211       3.181       2.311       1.518      0.7555      2.5100E-03
   3    9.995       8.360       6.729       5.140       3.737       2.828       2.100       1.408      0.7095      2.3574E-03
   4    9.995       8.260       6.470       4.585       2.744       2.270       1.832       1.287      0.6630      2.2032E-03
   5    9.995       8.207       6.290       3.970      0.4442       1.653       1.650       1.228      0.6446      2.1422E-03
   6    9.995       8.275       6.499       4.624       2.787       2.312       1.869       1.313      0.6768      2.2491E-03
   7    9.996       8.393       6.791       5.224       3.830       2.919       2.178       1.464      0.7387      2.4543E-03
   8    9.996       8.502       7.033       5.630       4.369       3.334       2.440       1.610      0.8030      2.6678E-03
   9    9.996       8.579       7.193       5.872       4.660       3.584       2.616       1.716      0.8523      2.8314E-03
  10    9.996       8.618       7.271       5.985       4.790       3.700       2.703       1.771      0.8784      2.9180E-03
1
              HEAD IN LAYER   3 AT END OF TIME STEP  18 IN STRESS PERIOD    3
  ---------------------------------------------------------------------------

            1           2           3           4           5           6           7           8           9          10
 ........................................................................................................................
   1    9.996       8.494       7.031       5.652       4.413       3.347       2.421       1.580      0.7825      2.5995E-03
   2    9.996       8.447       6.928       5.489       4.211       3.181       2.311       1.518      0.7555      2.5099E-03
   3    9.995       8.360       6.729       5.140       3.737       2.828       2.100       1.408      0.7095      2.3574E-03
   4    9.995       8.260       6.470       4.586       2.752       2.270       1.832       1.287      0.6630      2.2032E-03
   5    9.995       8.207       6.290       3.978      0.6798       1.661       1.651       1.228      0.6446      2.1422E-03
   6    9.995       8.275       6.499       4.624       2.795       2.313       1.869       1.313      0.6768      2.2490E-03
   7    9.996       8.393       6.791       5.224       3.830       2.919       2.178       1.464      0.7387      2.4543E-03
   8    9.996       8.502       7.033       5.630       4.369       3.334       2.440       1.610      0.8030      2.6678E-03
   9    9.996       8.579       7.193       5.872       4.660       3.584       2.616       1.716      0.8523      2.8314E-03
  10    9.996       8.618       7.271       5.985       4.790       3.700       2.703       1.771      0.8784      2.9180E-03

 HEAD WILL BE SAVED ON UNIT   51 AT END OF TIME STEP   18, STRESS PERIOD    3

 DRAWDOWN WILL BE SAVED ON UNIT   52 AT END OF TIME STEP   18, STRESS PERIOD    3
1
  VOLUMETRIC BUDGET FOR ENTIRE MODEL AT END OF TIME STEP   18, STRESS PERIOD   3
  ------------------------------------------------------------------------------

     CUMULATIVE VOLUMES      L**3       RATES FOR THIS TIME STEP      L**3/T
     ------------------                 ------------------------

           IN:                                      IN:
           ---                                      ---
             STORAGE =       29347.3867               STORAGE =          83.0373
       CONSTANT HEAD =           0.0000         CONSTANT HEAD =           0.0000
               WELLS =           0.0000                 WELLS =           0.0000
       RIVER LEAKAGE =       60820.5000         RIVER LEAKAGE =         790.9209

            TOTAL IN =       90167.8906              TOTAL IN =         873.9582

          OUT:                                     OUT:
          ----                                     ----
             STORAGE =       2.9439E-02               STORAGE =           0.0000
       CONSTANT HEAD =           0.0000         CONSTANT HEAD =           0.0000
               WELLS =        9000.0000                 WELLS =         500.0000
       RIVER LEAKAGE =       81175.9062         RIVER LEAKAGE =         373.9929

           TOTAL OUT =       90175.9375             TOTAL OUT =         873.9929

            IN - OUT =          -8.0469              IN - OUT =      -3.4668E-02

 PERCENT DISCREPANCY =          -0.01     PERCENT DISCREPANCY =          -0.00






         TIME SUMMARY AT END OF TIME STEP   18 IN STRESS PERIOD    3
                    SECONDS     MINUTES      HOURS       DAYS        YEARS
                    -----------------------------------------------------------
   TIME STEP LENGTH  86400.      1440.0      24.000      1.0000     2.73785E-03
 STRESS PERIOD TIME 1.55520E+06  25920.      432.00      18.000     4.92813E-02
         TOTAL TIME 1.02816E+07 1.71360E+05  2856.0      119.00     0.32580    
1

 SOLVING FOR HEAD 

 OUTPUT CONTROL FOR STRESS PERIOD    3   TIME STEP   19
    SAVE HEAD FOR ALL LAYERS
    SAVE DRAWDOWN FOR ALL LAYERS
    SAVE BUDGET
    PRINT HEAD FOR ALL LAYERS
    PRINT BUDGET
 UBDSV1 SAVING "         STORAGE" ON UNIT  53 AT TIME STEP 19, STRESS PERIOD   3
 UBDSV2 SAVING "   CONSTANT HEAD" ON UNIT  53 AT TIME STEP 19, STRESS PERIOD   3
 UBDSV1 SAVING "FLOW RIGHT FACE " ON UNIT  53 AT TIME STEP 19, STRESS PERIOD   3
 UBDSV1 SAVING "FLOW FRONT FACE " ON UNIT  53 AT TIME STEP 19, STRESS PERIOD   3
 UBDSV1 SAVING "FLOW LOWER FACE " ON UNIT  53 AT TIME STEP 19, STRESS PERIOD   3
1
              HEAD IN LAYER   1 AT END OF TIME STEP  19 IN STRESS PERIOD    3
  ---------------------------------------------------------------------------

            1           2           3           4           5           6           7           8           9          10
 ........................................................................................................................
   1    9.996       8.486       7.015       5.631       4.389       3.323       2.400       1.564      0.7741      2.5715E-03
   2    9.996       8.439       6.913       5.468       4.188       3.158       2.290       1.503      0.7472      2.4823E-03
   3    9.995       8.352       6.714       5.121       3.715       2.806       2.081       1.393      0.7015      2.3306E-03
   4    9.995       8.253       6.456       4.568       2.715       2.249       1.813       1.272      0.6552      2.1773E-03
   5    9.995       8.200       6.277       3.944     -6.5842E-02   1.625       1.632       1.214      0.6370      2.1170E-03
   6    9.995       8.268       6.486       4.607       2.759       2.292       1.851       1.299      0.6693      2.2241E-03
   7    9.996       8.386       6.778       5.206       3.810       2.899       2.160       1.450      0.7312      2.4293E-03
   8    9.996       8.495       7.019       5.611       4.348       3.313       2.421       1.596      0.7955      2.6426E-03
   9    9.996       8.572       7.179       5.853       4.638       3.562       2.597       1.702      0.8447      2.8062E-03
  10    9.996       8.611       7.256       5.966       4.768       3.679       2.684       1.757      0.8708      2.8927E-03
1
              HEAD IN LAYER   2 AT END OF TIME STEP  19 IN STRESS PERIOD    3
  ---------------------------------------------------------------------------

            1           2           3           4           5           6           7           8           9          10
 ........................................................................................................................
   1    9.996       8.486       7.015       5.631       4.389       3.323       2.400       1.564      0.7741      2.5715E-03
   2    9.996       8.439       6.913       5.468       4.188       3.158       2.290       1.503      0.7472      2.4823E-03
   3    9.995       8.352       6.714       5.121       3.715       2.806       2.081       1.393      0.7015      2.3306E-03
   4    9.995       8.253       6.456       4.568       2.725       2.250       1.813       1.272      0.6552      2.1773E-03
   5    9.995       8.200       6.277       3.954      0.4291       1.635       1.632       1.214      0.6370      2.1170E-03
   6    9.995       8.268       6.486       4.607       2.769       2.293       1.851       1.299      0.6693      2.2241E-03
   7    9.996       8.386       6.778       5.206       3.810       2.899       2.160       1.450      0.7312      2.4293E-03
   8    9.996       8.495       7.019       5.611       4.348       3.313       2.421       1.596      0.7955      2.6426E-03
   9    9.996       8.572       7.179       5.853       4.638       3.562       2.597       1.702      0.8447      2.8062E-03
  10    9.996       8.611       7.256       5.966       4.768       3.679       2.684       1.757      0.8708      2.8927E-03
1
              HEAD IN LAYER   3 AT END OF TIME STEP  19 IN STRESS PERIOD    3
  ---------------------------------------------------------------------------

            1           2           3           4           5           6           7           8           9          10
 ........................................................................................................................
   1    9.996       8.486       7.015       5.631       4.389       3.323       2.400       1.564      0.7741      2.5715E-03
   2    9.996       8.439       6.913       5.468       4.188       3.158       2.290       1.503      0.7472      2.4823E-03
   3    9.995       8.352       6.714       5.121       3.716       2.806       2.081       1.393      0.7015      2.3306E-03
   4    9.995       8.253       6.456       4.568       2.733       2.250       1.813       1.272      0.6552      2.1773E-03
   5    9.995       8.200       6.277       3.962      0.6645       1.643       1.633       1.214      0.6370      2.1170E-03
   6    9.995       8.268       6.486       4.608       2.777       2.293       1.851       1.299      0.6693      2.2241E-03
   7    9.996       8.386       6.778       5.206       3.811       2.899       2.160       1.450      0.7312      2.4293E-03
   8    9.996       8.495       7.019       5.611       4.348       3.313       2.421       1.596      0.7955      2.6426E-03
   9    9.996       8.572       7.179       5.853       4.638       3.562       2.597       1.702      0.8447      2.8062E-03
  10    9.996       8.611       7.256       5.966       4.768       3.679       2.684       1.757      0.8708      2.8927E-03

 HEAD WILL BE SAVED ON UNIT   51 AT END OF TIME STEP   19, STRESS PERIOD    3

 DRAWDOWN WILL BE SAVED ON UNIT   52 AT END OF TIME STEP   19, STRESS PERIOD    3
1
  VOLUMETRIC BUDGET FOR ENTIRE MODEL AT END OF TIME STEP   19, STRESS PERIOD   3
  ------------------------------------------------------------------------------

     CUMULATIVE VOLUMES      L**3       RATES FOR THIS TIME STEP      L**3/T
     ------------------                 ------------------------

           IN:                                      IN:
           ---                                      ---
             STORAGE =       29422.8008               STORAGE =          75.4135
       CONSTANT HEAD =           0.0000         CONSTANT HEAD =           0.0000
               WELLS =           0.0000                 WELLS =           0.0000
       RIVER LEAKAGE =       61615.1523         RIVER LEAKAGE =         794.6537

            TOTAL IN =       91037.9531              TOTAL IN =         870.0673

          OUT:                                     OUT:
          ----                                     ----
             STORAGE =       2.9439E-02               STORAGE =           0.0000
       CONSTANT HEAD =           0.0000         CONSTANT HEAD =           0.0000
               WELLS =        9500.0000                 WELLS =         500.0000
       RIVER LEAKAGE =       81546.0078         RIVER LEAKAGE =         370.1024

           TOTAL OUT =       91046.0391             TOTAL OUT =         870.1024

            IN - OUT =          -8.0859              IN - OUT =      -3.5156E-02

 PERCENT DISCREPANCY =          -0.01     PERCENT DISCREPANCY =          -0.00






         TIME SUMMARY AT END OF TIME STEP   19 IN STRESS PERIOD    3
                    SECONDS     MINUTES      HOURS       DAYS        YEARS
                    -----------------------------------------------------------
   TIME STEP LENGTH  86400.      1440.0      24.000      1.0000     2.73785E-03
 STRESS PERIOD TIME 1.64160E+06  27360.      456.00      19.000     5.20192E-02
         TOTAL TIME 1.03680E+07 1.72800E+05  2880.0      120.00     0.32854    
1

 SOLVING FOR HEAD 

 OUTPUT CONTROL FOR STRESS PERIOD    3   TIME STEP   20
    SAVE HEAD FOR ALL LAYERS
    SAVE DRAWDOWN FOR ALL LAYERS
    SAVE BUDGET
    PRINT HEAD FOR ALL LAYERS
    PRINT BUDGET
 UBDSV1 SAVING "         STORAGE" ON UNIT  53 AT TIME STEP 20, STRESS PERIOD   3
 UBDSV2 SAVING "   CONSTANT HEAD" ON UNIT  53 AT TIME STEP 20, STRESS PERIOD   3
 UBDSV1 SAVING "FLOW RIGHT FACE " ON UNIT  53 AT TIME STEP 20, STRESS PERIOD   3
 UBDSV1 SAVING "FLOW FRONT FACE " ON UNIT  53 AT TIME STEP 20, STRESS PERIOD   3
 UBDSV1 SAVING "FLOW LOWER FACE " ON UNIT  53 AT TIME STEP 20, STRESS PERIOD   3
1
              HEAD IN LAYER   1 AT END OF TIME STEP  20 IN STRESS PERIOD    3
  ---------------------------------------------------------------------------

            1           2           3           4           5           6           7           8           9          10
 ........................................................................................................................
   1    9.996       8.479       7.002       5.613       4.368       3.303       2.381       1.550      0.7667      2.5470E-03
   2    9.996       8.432       6.900       5.451       4.168       3.138       2.272       1.489      0.7400      2.4582E-03
   3    9.995       8.345       6.702       5.105       3.696       2.787       2.063       1.380      0.6944      2.3071E-03
   4    9.995       8.246       6.445       4.552       2.697       2.231       1.797       1.260      0.6484      2.1546E-03
   5    9.995       8.194       6.266       3.930     -8.0545E-02   1.608       1.616       1.202      0.6304      2.0949E-03
   6    9.995       8.262       6.474       4.592       2.742       2.275       1.835       1.287      0.6627      2.2022E-03
   7    9.996       8.380       6.766       5.190       3.793       2.881       2.144       1.438      0.7246      2.4073E-03
   8    9.996       8.489       7.007       5.595       4.330       3.294       2.405       1.583      0.7888      2.6204E-03
   9    9.996       8.565       7.166       5.836       4.619       3.543       2.580       1.690      0.8380      2.7838E-03
  10    9.996       8.604       7.244       5.949       4.749       3.659       2.667       1.744      0.8640      2.8703E-03
1
              HEAD IN LAYER   2 AT END OF TIME STEP  20 IN STRESS PERIOD    3
  ---------------------------------------------------------------------------

            1           2           3           4           5           6           7           8           9          10
 ........................................................................................................................
   1    9.996       8.479       7.002       5.613       4.368       3.303       2.381       1.550      0.7667      2.5470E-03
   2    9.996       8.432       6.900       5.451       4.168       3.138       2.272       1.489      0.7400      2.4582E-03
   3    9.995       8.345       6.702       5.105       3.696       2.787       2.063       1.380      0.6944      2.3071E-03
   4    9.995       8.246       6.445       4.553       2.708       2.232       1.797       1.260      0.6484      2.1546E-03
   5    9.995       8.194       6.266       3.940      0.4140       1.618       1.617       1.202      0.6304      2.0949E-03
   6    9.995       8.262       6.474       4.593       2.753       2.276       1.835       1.287      0.6627      2.2022E-03
   7    9.996       8.380       6.766       5.190       3.793       2.881       2.144       1.438      0.7246      2.4073E-03
   8    9.996       8.489       7.007       5.595       4.330       3.294       2.405       1.583      0.7888      2.6204E-03
   9    9.996       8.565       7.166       5.836       4.619       3.543       2.580       1.690      0.8380      2.7838E-03
  10    9.996       8.604       7.244       5.949       4.749       3.659       2.667       1.744      0.8640      2.8703E-03
1
              HEAD IN LAYER   3 AT END OF TIME STEP  20 IN STRESS PERIOD    3
  ---------------------------------------------------------------------------

            1           2           3           4           5           6           7           8           9          10
 ........................................................................................................................
   1    9.996       8.479       7.002       5.613       4.368       3.303       2.381       1.550      0.7667      2.5470E-03
   2    9.996       8.432       6.900       5.451       4.168       3.138       2.272       1.489      0.7400      2.4582E-03
   3    9.995       8.345       6.702       5.105       3.697       2.787       2.063       1.380      0.6944      2.3071E-03
   4    9.995       8.246       6.445       4.553       2.716       2.232       1.797       1.260      0.6484      2.1546E-03
   5    9.995       8.194       6.266       3.948      0.6492       1.626       1.617       1.202      0.6304      2.0949E-03
   6    9.995       8.262       6.474       4.593       2.761       2.276       1.835       1.287      0.6627      2.2022E-03
   7    9.996       8.380       6.766       5.190       3.793       2.881       2.144       1.438      0.7246      2.4073E-03
   8    9.996       8.489       7.007       5.595       4.330       3.294       2.405       1.583      0.7888      2.6204E-03
   9    9.996       8.565       7.166       5.836       4.619       3.543       2.580       1.690      0.8380      2.7838E-03
  10    9.996       8.604       7.244       5.949       4.749       3.659       2.667       1.744      0.8640      2.8703E-03

 HEAD WILL BE SAVED ON UNIT   51 AT END OF TIME STEP   20, STRESS PERIOD    3

 DRAWDOWN WILL BE SAVED ON UNIT   52 AT END OF TIME STEP   20, STRESS PERIOD    3
1
  VOLUMETRIC BUDGET FOR ENTIRE MODEL AT END OF TIME STEP   20, STRESS PERIOD   3
  ------------------------------------------------------------------------------

     CUMULATIVE VOLUMES      L**3       RATES FOR THIS TIME STEP      L**3/T
     ------------------                 ------------------------

           IN:                                      IN:
           ---                                      ---
             STORAGE =       29491.5176               STORAGE =          68.7177
       CONSTANT HEAD =           0.0000         CONSTANT HEAD =           0.0000
               WELLS =           0.0000                 WELLS =           0.0000
       RIVER LEAKAGE =       62413.0742         RIVER LEAKAGE =         797.9234

            TOTAL IN =       91904.5938              TOTAL IN =         866.6411

          OUT:                                     OUT:
          ----                                     ----
             STORAGE =       2.9439E-02               STORAGE =           0.0000
       CONSTANT HEAD =           0.0000         CONSTANT HEAD =           0.0000
               WELLS =       10000.0000                 WELLS =         500.0000
       RIVER LEAKAGE =       81912.6953         RIVER LEAKAGE =         366.6863

           TOTAL OUT =       91912.7266             TOTAL OUT =         866.6863

            IN - OUT =          -8.1328              IN - OUT =      -4.5288E-02

 PERCENT DISCREPANCY =          -0.01     PERCENT DISCREPANCY =          -0.01






         TIME SUMMARY AT END OF TIME STEP   20 IN STRESS PERIOD    3
                    SECONDS     MINUTES      HOURS       DAYS        YEARS
                    -----------------------------------------------------------
   TIME STEP LENGTH  86400.      1440.0      24.000      1.0000     2.73785E-03
 STRESS PERIOD TIME 1.72800E+06  28800.      480.00      20.000     5.47570E-02
         TOTAL TIME 1.04544E+07 1.74240E+05  2904.0      121.00     0.33128    
1

 SOLVING FOR HEAD 

 OUTPUT CONTROL FOR STRESS PERIOD    3   TIME STEP   21
    SAVE HEAD FOR ALL LAYERS
    SAVE DRAWDOWN FOR ALL LAYERS
    SAVE BUDGET
    PRINT HEAD FOR ALL LAYERS
    PRINT BUDGET
 UBDSV1 SAVING "         STORAGE" ON UNIT  53 AT TIME STEP 21, STRESS PERIOD   3
 UBDSV2 SAVING "   CONSTANT HEAD" ON UNIT  53 AT TIME STEP 21, STRESS PERIOD   3
 UBDSV1 SAVING "FLOW RIGHT FACE " ON UNIT  53 AT TIME STEP 21, STRESS PERIOD   3
 UBDSV1 SAVING "FLOW FRONT FACE " ON UNIT  53 AT TIME STEP 21, STRESS PERIOD   3
 UBDSV1 SAVING "FLOW LOWER FACE " ON UNIT  53 AT TIME STEP 21, STRESS PERIOD   3
1
              HEAD IN LAYER   1 AT END OF TIME STEP  21 IN STRESS PERIOD    3
  ---------------------------------------------------------------------------

            1           2           3           4           5           6           7           8           9          10
 ........................................................................................................................
   1    9.996       8.472       6.990       5.597       4.350       3.284       2.365       1.538      0.7602      2.5255E-03
   2    9.996       8.426       6.888       5.435       4.151       3.120       2.256       1.477      0.7336      2.4371E-03
   3    9.995       8.340       6.691       5.090       3.679       2.770       2.048       1.368      0.6882      2.2866E-03
   4    9.995       8.241       6.434       4.538       2.682       2.215       1.782       1.249      0.6424      2.1346E-03
   5    9.995       8.188       6.255       3.916     -9.5335E-02   1.592       1.602       1.191      0.6245      2.0754E-03
   6    9.995       8.257       6.464       4.579       2.727       2.259       1.821       1.276      0.6569      2.1829E-03
   7    9.995       8.374       6.755       5.176       3.777       2.865       2.129       1.427      0.7187      2.3879E-03
   8    9.996       8.483       6.996       5.581       4.314       3.278       2.390       1.572      0.7829      2.6008E-03
   9    9.996       8.560       7.155       5.822       4.603       3.526       2.565       1.679      0.8320      2.7640E-03
  10    9.996       8.598       7.233       5.934       4.732       3.642       2.652       1.733      0.8580      2.8504E-03
1
              HEAD IN LAYER   2 AT END OF TIME STEP  21 IN STRESS PERIOD    3
  ---------------------------------------------------------------------------

            1           2           3           4           5           6           7           8           9          10
 ........................................................................................................................
   1    9.996       8.472       6.990       5.597       4.350       3.284       2.365       1.538      0.7602      2.5255E-03
   2    9.996       8.426       6.888       5.435       4.151       3.120       2.256       1.477      0.7336      2.4371E-03
   3    9.995       8.340       6.691       5.090       3.680       2.770       2.048       1.368      0.6882      2.2866E-03
   4    9.995       8.241       6.434       4.539       2.692       2.215       1.782       1.249      0.6424      2.1346E-03
   5    9.995       8.188       6.256       3.927      0.3990       1.603       1.602       1.191      0.6245      2.0754E-03
   6    9.995       8.257       6.464       4.579       2.737       2.260       1.821       1.276      0.6569      2.1829E-03
   7    9.995       8.374       6.755       5.176       3.777       2.865       2.129       1.427      0.7187      2.3879E-03
   8    9.996       8.483       6.996       5.581       4.314       3.278       2.390       1.572      0.7829      2.6008E-03
   9    9.996       8.560       7.155       5.822       4.603       3.526       2.565       1.679      0.8320      2.7640E-03
  10    9.996       8.598       7.233       5.934       4.732       3.642       2.652       1.733      0.8580      2.8504E-03
1
              HEAD IN LAYER   3 AT END OF TIME STEP  21 IN STRESS PERIOD    3
  ---------------------------------------------------------------------------

            1           2           3           4           5           6           7           8           9          10
 ........................................................................................................................
   1    9.996       8.472       6.990       5.597       4.350       3.284       2.365       1.538      0.7602      2.5255E-03
   2    9.996       8.426       6.888       5.435       4.151       3.120       2.256       1.477      0.7336      2.4371E-03
   3    9.995       8.340       6.691       5.090       3.680       2.770       2.048       1.368      0.6882      2.2866E-03
   4    9.995       8.241       6.434       4.539       2.700       2.216       1.782       1.249      0.6424      2.1346E-03
   5    9.995       8.188       6.256       3.934      0.6342       1.611       1.603       1.191      0.6245      2.0754E-03
   6    9.995       8.257       6.464       4.580       2.745       2.260       1.821       1.276      0.6569      2.1829E-03
   7    9.995       8.374       6.755       5.177       3.777       2.865       2.129       1.427      0.7187      2.3879E-03
   8    9.996       8.483       6.996       5.581       4.314       3.278       2.390       1.572      0.7829      2.6008E-03
   9    9.996       8.560       7.155       5.822       4.603       3.526       2.565       1.679      0.8320      2.7640E-03
  10    9.996       8.598       7.233       5.934       4.732       3.642       2.652       1.733      0.8580      2.8504E-03

 HEAD WILL BE SAVED ON UNIT   51 AT END OF TIME STEP   21, STRESS PERIOD    3

 DRAWDOWN WILL BE SAVED ON UNIT   52 AT END OF TIME STEP   21, STRESS PERIOD    3
1
  VOLUMETRIC BUDGET FOR ENTIRE MODEL AT END OF TIME STEP   21, STRESS PERIOD   3
  ------------------------------------------------------------------------------

     CUMULATIVE VOLUMES      L**3       RATES FOR THIS TIME STEP      L**3/T
     ------------------                 ------------------------

           IN:                                      IN:
           ---                                      ---
             STORAGE =       29554.3281               STORAGE =          62.8099
       CONSTANT HEAD =           0.0000         CONSTANT HEAD =           0.0000
               WELLS =           0.0000                 WELLS =           0.0000
       RIVER LEAKAGE =       63213.8867         RIVER LEAKAGE =         800.8132

            TOTAL IN =       92768.2188              TOTAL IN =         863.6232

          OUT:                                     OUT:
          ----                                     ----
             STORAGE =       2.9439E-02               STORAGE =           0.0000
       CONSTANT HEAD =           0.0000         CONSTANT HEAD =           0.0000
               WELLS =       10500.0000                 WELLS =         500.0000
       RIVER LEAKAGE =       82276.3750         RIVER LEAKAGE =         363.6777

           TOTAL OUT =       92776.4062             TOTAL OUT =         863.6777

            IN - OUT =          -8.1875              IN - OUT =      -5.4504E-02

 PERCENT DISCREPANCY =          -0.01     PERCENT DISCREPANCY =          -0.01






         TIME SUMMARY AT END OF TIME STEP   21 IN STRESS PERIOD    3
                    SECONDS     MINUTES      HOURS       DAYS        YEARS
                    -----------------------------------------------------------
   TIME STEP LENGTH  86400.      1440.0      24.000      1.0000     2.73785E-03
 STRESS PERIOD TIME 1.81440E+06  30240.      504.00      21.000     5.74949E-02
         TOTAL TIME 1.05408E+07 1.75680E+05  2928.0      122.00     0.33402    
1

 SOLVING FOR HEAD 

 OUTPUT CONTROL FOR STRESS PERIOD    3   TIME STEP   22
    SAVE HEAD FOR ALL LAYERS
    SAVE DRAWDOWN FOR ALL LAYERS
    SAVE BUDGET
    PRINT HEAD FOR ALL LAYERS
    PRINT BUDGET
 UBDSV1 SAVING "         STORAGE" ON UNIT  53 AT TIME STEP 22, STRESS PERIOD   3
 UBDSV2 SAVING "   CONSTANT HEAD" ON UNIT  53 AT TIME STEP 22, STRESS PERIOD   3
 UBDSV1 SAVING "FLOW RIGHT FACE " ON UNIT  53 AT TIME STEP 22, STRESS PERIOD   3
 UBDSV1 SAVING "FLOW FRONT FACE " ON UNIT  53 AT TIME STEP 22, STRESS PERIOD   3
 UBDSV1 SAVING "FLOW LOWER FACE " ON UNIT  53 AT TIME STEP 22, STRESS PERIOD   3
1
              HEAD IN LAYER   1 AT END OF TIME STEP  22 IN STRESS PERIOD    3
  ---------------------------------------------------------------------------

            1           2           3           4           5           6           7           8           9          10
 ........................................................................................................................
   1    9.996       8.467       6.979       5.583       4.334       3.268       2.351       1.528      0.7546      2.5067E-03
   2    9.996       8.420       6.878       5.422       4.135       3.104       2.243       1.467      0.7280      2.4185E-03
   3    9.995       8.334       6.681       5.077       3.664       2.755       2.035       1.358      0.6828      2.2684E-03
   4    9.995       8.236       6.425       4.526       2.667       2.200       1.769       1.239      0.6371      2.1170E-03
   5    9.995       8.183       6.246       3.904     -0.1100       1.578       1.589       1.181      0.6193      2.0581E-03
   6    9.995       8.252       6.455       4.566       2.713       2.245       1.808       1.267      0.6518      2.1657E-03
   7    9.995       8.369       6.746       5.164       3.762       2.850       2.116       1.417      0.7135      2.3707E-03
   8    9.996       8.478       6.987       5.568       4.299       3.263       2.377       1.563      0.7777      2.5835E-03
   9    9.996       8.554       7.146       5.809       4.588       3.511       2.552       1.669      0.8268      2.7465E-03
  10    9.996       8.593       7.223       5.921       4.717       3.627       2.639       1.723      0.8527      2.8328E-03
1
              HEAD IN LAYER   2 AT END OF TIME STEP  22 IN STRESS PERIOD    3
  ---------------------------------------------------------------------------

            1           2           3           4           5           6           7           8           9          10
 ........................................................................................................................
   1    9.996       8.467       6.979       5.583       4.334       3.268       2.351       1.528      0.7546      2.5067E-03
   2    9.996       8.420       6.878       5.422       4.135       3.104       2.243       1.467      0.7280      2.4185E-03
   3    9.995       8.334       6.681       5.077       3.665       2.755       2.035       1.358      0.6828      2.2684E-03
   4    9.995       8.236       6.425       4.526       2.677       2.201       1.769       1.239      0.6371      2.1170E-03
   5    9.995       8.183       6.246       3.914      0.3842       1.588       1.590       1.181      0.6193      2.0581E-03
   6    9.995       8.252       6.455       4.567       2.723       2.246       1.808       1.267      0.6518      2.1657E-03
   7    9.995       8.369       6.746       5.164       3.763       2.850       2.116       1.417      0.7135      2.3707E-03
   8    9.996       8.478       6.987       5.568       4.299       3.263       2.377       1.563      0.7777      2.5835E-03
   9    9.996       8.554       7.146       5.809       4.588       3.511       2.552       1.669      0.8268      2.7465E-03
  10    9.996       8.593       7.223       5.921       4.717       3.627       2.639       1.723      0.8527      2.8328E-03
1
              HEAD IN LAYER   3 AT END OF TIME STEP  22 IN STRESS PERIOD    3
  ---------------------------------------------------------------------------

            1           2           3           4           5           6           7           8           9          10
 ........................................................................................................................
   1    9.996       8.467       6.979       5.583       4.334       3.268       2.351       1.528      0.7546      2.5067E-03
   2    9.996       8.420       6.878       5.422       4.135       3.104       2.243       1.467      0.7280      2.4185E-03
   3    9.995       8.334       6.681       5.077       3.665       2.755       2.035       1.358      0.6828      2.2684E-03
   4    9.995       8.236       6.425       4.526       2.685       2.201       1.769       1.239      0.6371      2.1170E-03
   5    9.995       8.183       6.247       3.922      0.6195       1.596       1.590       1.181      0.6193      2.0581E-03
   6    9.995       8.252       6.455       4.567       2.731       2.246       1.808       1.267      0.6518      2.1657E-03
   7    9.995       8.369       6.746       5.164       3.763       2.851       2.116       1.417      0.7135      2.3707E-03
   8    9.996       8.478       6.987       5.568       4.299       3.263       2.377       1.563      0.7777      2.5835E-03
   9    9.996       8.554       7.146       5.809       4.588       3.511       2.552       1.669      0.8268      2.7465E-03
  10    9.996       8.593       7.223       5.921       4.717       3.627       2.639       1.723      0.8527      2.8328E-03

 HEAD WILL BE SAVED ON UNIT   51 AT END OF TIME STEP   22, STRESS PERIOD    3

 DRAWDOWN WILL BE SAVED ON UNIT   52 AT END OF TIME STEP   22, STRESS PERIOD    3
1
  VOLUMETRIC BUDGET FOR ENTIRE MODEL AT END OF TIME STEP   22, STRESS PERIOD   3
  ------------------------------------------------------------------------------

     CUMULATIVE VOLUMES      L**3       RATES FOR THIS TIME STEP      L**3/T
     ------------------                 ------------------------

           IN:                                      IN:
           ---                                      ---
             STORAGE =       29611.9043               STORAGE =          57.5755
       CONSTANT HEAD =           0.0000         CONSTANT HEAD =           0.0000
               WELLS =           0.0000                 WELLS =           0.0000
       RIVER LEAKAGE =       64017.2812         RIVER LEAKAGE =         803.3928

            TOTAL IN =       93629.1875              TOTAL IN =         860.9683

          OUT:                                     OUT:
          ----                                     ----
             STORAGE =       2.9439E-02               STORAGE =           0.0000
       CONSTANT HEAD =           0.0000         CONSTANT HEAD =           0.0000
               WELLS =       11000.0000                 WELLS =         500.0000
       RIVER LEAKAGE =       82637.3906         RIVER LEAKAGE =         361.0191

           TOTAL OUT =       93637.4219             TOTAL OUT =         861.0190

            IN - OUT =          -8.2344              IN - OUT =      -5.0720E-02

 PERCENT DISCREPANCY =          -0.01     PERCENT DISCREPANCY =          -0.01






         TIME SUMMARY AT END OF TIME STEP   22 IN STRESS PERIOD    3
                    SECONDS     MINUTES      HOURS       DAYS        YEARS
                    -----------------------------------------------------------
   TIME STEP LENGTH  86400.      1440.0      24.000      1.0000     2.73785E-03
 STRESS PERIOD TIME 1.90080E+06  31680.      528.00      22.000     6.02327E-02
         TOTAL TIME 1.06272E+07 1.77120E+05  2952.0      123.00     0.33676    
1

 SOLVING FOR HEAD 

 OUTPUT CONTROL FOR STRESS PERIOD    3   TIME STEP   23
    SAVE HEAD FOR ALL LAYERS
    SAVE DRAWDOWN FOR ALL LAYERS
    SAVE BUDGET
    PRINT HEAD FOR ALL LAYERS
    PRINT BUDGET
 UBDSV1 SAVING "         STORAGE" ON UNIT  53 AT TIME STEP 23, STRESS PERIOD   3
 UBDSV2 SAVING "   CONSTANT HEAD" ON UNIT  53 AT TIME STEP 23, STRESS PERIOD   3
 UBDSV1 SAVING "FLOW RIGHT FACE " ON UNIT  53 AT TIME STEP 23, STRESS PERIOD   3
 UBDSV1 SAVING "FLOW FRONT FACE " ON UNIT  53 AT TIME STEP 23, STRESS PERIOD   3
 UBDSV1 SAVING "FLOW LOWER FACE " ON UNIT  53 AT TIME STEP 23, STRESS PERIOD   3
1
              HEAD IN LAYER   1 AT END OF TIME STEP  23 IN STRESS PERIOD    3
  ---------------------------------------------------------------------------

            1           2           3           4           5           6           7           8           9          10
 ........................................................................................................................
   1    9.996       8.462       6.970       5.571       4.320       3.254       2.338       1.518      0.7496      2.4902E-03
   2    9.996       8.415       6.869       5.409       4.121       3.090       2.230       1.458      0.7231      2.4022E-03
   3    9.995       8.330       6.672       5.065       3.651       2.741       2.023       1.349      0.6780      2.2524E-03
   4    9.995       8.231       6.416       4.514       2.654       2.187       1.757       1.230      0.6324      2.1013E-03
   5    9.995       8.179       6.238       3.893     -0.1245       1.565       1.578       1.172      0.6147      2.0427E-03
   6    9.995       8.247       6.447       4.555       2.700       2.232       1.796       1.258      0.6472      2.1504E-03
   7    9.995       8.365       6.738       5.153       3.749       2.837       2.105       1.409      0.7089      2.3553E-03
   8    9.996       8.473       6.978       5.556       4.286       3.250       2.365       1.554      0.7730      2.5680E-03
   9    9.996       8.550       7.137       5.797       4.574       3.498       2.540       1.660      0.8221      2.7310E-03
  10    9.996       8.588       7.214       5.909       4.703       3.614       2.627       1.715      0.8480      2.8172E-03
1
              HEAD IN LAYER   2 AT END OF TIME STEP  23 IN STRESS PERIOD    3
  ---------------------------------------------------------------------------

            1           2           3           4           5           6           7           8           9          10
 ........................................................................................................................
   1    9.996       8.462       6.970       5.571       4.320       3.254       2.338       1.518      0.7496      2.4902E-03
   2    9.996       8.415       6.869       5.409       4.121       3.090       2.230       1.458      0.7231      2.4022E-03
   3    9.995       8.330       6.672       5.065       3.651       2.741       2.023       1.349      0.6780      2.2524E-03
   4    9.995       8.231       6.416       4.514       2.664       2.187       1.757       1.230      0.6324      2.1013E-03
   5    9.995       8.179       6.238       3.903      0.3698       1.575       1.578       1.172      0.6147      2.0427E-03
   6    9.995       8.247       6.447       4.556       2.710       2.233       1.796       1.258      0.6472      2.1504E-03
   7    9.995       8.365       6.738       5.153       3.750       2.837       2.105       1.409      0.7089      2.3553E-03
   8    9.996       8.473       6.978       5.556       4.286       3.250       2.365       1.554      0.7730      2.5680E-03
   9    9.996       8.550       7.137       5.797       4.574       3.498       2.540       1.660      0.8221      2.7310E-03
  10    9.996       8.588       7.214       5.909       4.703       3.614       2.627       1.715      0.8480      2.8172E-03
1
              HEAD IN LAYER   3 AT END OF TIME STEP  23 IN STRESS PERIOD    3
  ---------------------------------------------------------------------------

            1           2           3           4           5           6           7           8           9          10
 ........................................................................................................................
   1    9.996       8.462       6.970       5.571       4.320       3.254       2.338       1.518      0.7496      2.4902E-03
   2    9.996       8.415       6.869       5.409       4.121       3.090       2.230       1.458      0.7231      2.4022E-03
   3    9.995       8.330       6.672       5.065       3.651       2.741       2.023       1.349      0.6780      2.2524E-03
   4    9.995       8.231       6.416       4.515       2.672       2.188       1.757       1.230      0.6324      2.1013E-03
   5    9.995       8.179       6.238       3.911      0.6053       1.583       1.578       1.172      0.6147      2.0427E-03
   6    9.995       8.247       6.447       4.556       2.718       2.233       1.796       1.258      0.6472      2.1504E-03
   7    9.995       8.365       6.738       5.153       3.750       2.837       2.105       1.409      0.7089      2.3553E-03
   8    9.996       8.473       6.978       5.556       4.286       3.250       2.365       1.554      0.7730      2.5680E-03
   9    9.996       8.550       7.137       5.797       4.574       3.498       2.540       1.660      0.8221      2.7310E-03
  10    9.996       8.588       7.214       5.909       4.703       3.614       2.627       1.715      0.8480      2.8172E-03

 HEAD WILL BE SAVED ON UNIT   51 AT END OF TIME STEP   23, STRESS PERIOD    3

 DRAWDOWN WILL BE SAVED ON UNIT   52 AT END OF TIME STEP   23, STRESS PERIOD    3
1
  VOLUMETRIC BUDGET FOR ENTIRE MODEL AT END OF TIME STEP   23, STRESS PERIOD   3
  ------------------------------------------------------------------------------

     CUMULATIVE VOLUMES      L**3       RATES FOR THIS TIME STEP      L**3/T
     ------------------                 ------------------------

           IN:                                      IN:
           ---                                      ---
             STORAGE =       29664.8203               STORAGE =          52.9169
       CONSTANT HEAD =           0.0000         CONSTANT HEAD =           0.0000
               WELLS =           0.0000                 WELLS =           0.0000
       RIVER LEAKAGE =       64822.9688         RIVER LEAKAGE =         805.6863

            TOTAL IN =       94487.7891              TOTAL IN =         858.6032

          OUT:                                     OUT:
          ----                                     ----
             STORAGE =       2.9439E-02               STORAGE =           0.0000
       CONSTANT HEAD =           0.0000         CONSTANT HEAD =           0.0000
               WELLS =       11500.0000                 WELLS =         500.0000
       RIVER LEAKAGE =       82996.0547         RIVER LEAKAGE =         358.6611

           TOTAL OUT =       94496.0859             TOTAL OUT =         858.6611

            IN - OUT =          -8.2969              IN - OUT =      -5.7861E-02

 PERCENT DISCREPANCY =          -0.01     PERCENT DISCREPANCY =          -0.01






         TIME SUMMARY AT END OF TIME STEP   23 IN STRESS PERIOD    3
                    SECONDS     MINUTES      HOURS       DAYS        YEARS
                    -----------------------------------------------------------
   TIME STEP LENGTH  86400.      1440.0      24.000      1.0000     2.73785E-03
 STRESS PERIOD TIME 1.98720E+06  33120.      552.00      23.000     6.29706E-02
         TOTAL TIME 1.07136E+07 1.78560E+05  2976.0      124.00     0.33949    
1

 SOLVING FOR HEAD 

 OUTPUT CONTROL FOR STRESS PERIOD    3   TIME STEP   24
    SAVE HEAD FOR ALL LAYERS
    SAVE DRAWDOWN FOR ALL LAYERS
    SAVE BUDGET
    PRINT HEAD FOR ALL LAYERS
    PRINT BUDGET
 UBDSV1 SAVING "         STORAGE" ON UNIT  53 AT TIME STEP 24, STRESS PERIOD   3
 UBDSV2 SAVING "   CONSTANT HEAD" ON UNIT  53 AT TIME STEP 24, STRESS PERIOD   3
 UBDSV1 SAVING "FLOW RIGHT FACE " ON UNIT  53 AT TIME STEP 24, STRESS PERIOD   3
 UBDSV1 SAVING "FLOW FRONT FACE " ON UNIT  53 AT TIME STEP 24, STRESS PERIOD   3
 UBDSV1 SAVING "FLOW LOWER FACE " ON UNIT  53 AT TIME STEP 24, STRESS PERIOD   3
1
              HEAD IN LAYER   1 AT END OF TIME STEP  24 IN STRESS PERIOD    3
  ---------------------------------------------------------------------------

            1           2           3           4           5           6           7           8           9          10
 ........................................................................................................................
   1    9.996       8.458       6.962       5.560       4.308       3.242       2.327       1.510      0.7452      2.4756E-03
   2    9.996       8.411       6.861       5.399       4.109       3.078       2.219       1.449      0.7188      2.3877E-03
   3    9.995       8.325       6.664       5.054       3.638       2.729       2.012       1.341      0.6737      2.2382E-03
   4    9.995       8.227       6.408       4.503       2.641       2.175       1.747       1.222      0.6282      2.0873E-03
   5    9.995       8.175       6.230       3.882     -0.1387       1.552       1.567       1.165      0.6105      2.0288E-03
   6    9.995       8.243       6.439       4.545       2.688       2.220       1.786       1.251      0.6430      2.1367E-03
   7    9.995       8.361       6.730       5.142       3.738       2.826       2.094       1.401      0.7048      2.3416E-03
   8    9.996       8.469       6.970       5.546       4.274       3.238       2.355       1.546      0.7689      2.5543E-03
   9    9.996       8.546       7.129       5.787       4.563       3.486       2.530       1.652      0.8179      2.7172E-03
  10    9.996       8.584       7.206       5.898       4.692       3.602       2.616       1.707      0.8439      2.8034E-03
1
              HEAD IN LAYER   2 AT END OF TIME STEP  24 IN STRESS PERIOD    3
  ---------------------------------------------------------------------------

            1           2           3           4           5           6           7           8           9          10
 ........................................................................................................................
   1    9.996       8.458       6.962       5.560       4.308       3.242       2.327       1.510      0.7452      2.4756E-03
   2    9.996       8.411       6.861       5.399       4.109       3.078       2.219       1.449      0.7188      2.3877E-03
   3    9.995       8.325       6.664       5.054       3.639       2.729       2.012       1.341      0.6737      2.2382E-03
   4    9.995       8.227       6.408       4.504       2.652       2.175       1.747       1.222      0.6282      2.0873E-03
   5    9.995       8.175       6.230       3.892      0.3559       1.563       1.567       1.165      0.6105      2.0288E-03
   6    9.995       8.243       6.439       4.545       2.698       2.221       1.786       1.251      0.6430      2.1367E-03
   7    9.995       8.361       6.730       5.142       3.738       2.826       2.094       1.401      0.7048      2.3416E-03
   8    9.996       8.469       6.970       5.546       4.274       3.238       2.355       1.546      0.7689      2.5543E-03
   9    9.996       8.546       7.129       5.787       4.563       3.486       2.530       1.652      0.8179      2.7172E-03
  10    9.996       8.584       7.206       5.898       4.692       3.602       2.616       1.707      0.8439      2.8034E-03
1
              HEAD IN LAYER   3 AT END OF TIME STEP  24 IN STRESS PERIOD    3
  ---------------------------------------------------------------------------

            1           2           3           4           5           6           7           8           9          10
 ........................................................................................................................
   1    9.996       8.458       6.962       5.560       4.308       3.242       2.327       1.510      0.7452      2.4756E-03
   2    9.996       8.411       6.861       5.399       4.109       3.078       2.219       1.449      0.7188      2.3877E-03
   3    9.995       8.325       6.664       5.054       3.639       2.729       2.012       1.341      0.6737      2.2382E-03
   4    9.995       8.227       6.408       4.504       2.660       2.176       1.747       1.222      0.6282      2.0873E-03
   5    9.995       8.175       6.231       3.900      0.5915       1.571       1.568       1.165      0.6105      2.0288E-03
   6    9.995       8.243       6.439       4.546       2.706       2.221       1.786       1.251      0.6430      2.1367E-03
   7    9.995       8.361       6.730       5.142       3.738       2.826       2.094       1.401      0.7048      2.3416E-03
   8    9.996       8.469       6.970       5.546       4.274       3.238       2.355       1.546      0.7689      2.5543E-03
   9    9.996       8.546       7.129       5.787       4.563       3.486       2.530       1.652      0.8179      2.7172E-03
  10    9.996       8.584       7.206       5.898       4.692       3.602       2.616       1.707      0.8439      2.8034E-03

 HEAD WILL BE SAVED ON UNIT   51 AT END OF TIME STEP   24, STRESS PERIOD    3

 DRAWDOWN WILL BE SAVED ON UNIT   52 AT END OF TIME STEP   24, STRESS PERIOD    3
1
  VOLUMETRIC BUDGET FOR ENTIRE MODEL AT END OF TIME STEP   24, STRESS PERIOD   3
  ------------------------------------------------------------------------------

     CUMULATIVE VOLUMES      L**3       RATES FOR THIS TIME STEP      L**3/T
     ------------------                 ------------------------

           IN:                                      IN:
           ---                                      ---
             STORAGE =       29713.5742               STORAGE =          48.7538
       CONSTANT HEAD =           0.0000         CONSTANT HEAD =           0.0000
               WELLS =           0.0000                 WELLS =           0.0000
       RIVER LEAKAGE =       65630.7266         RIVER LEAKAGE =         807.7558

            TOTAL IN =       95344.2969              TOTAL IN =         856.5096

          OUT:                                     OUT:
          ----                                     ----
             STORAGE =       2.9439E-02               STORAGE =           0.0000
       CONSTANT HEAD =           0.0000         CONSTANT HEAD =           0.0000
               WELLS =       12000.0000                 WELLS =         500.0000
       RIVER LEAKAGE =       83352.6172         RIVER LEAKAGE =         356.5621

           TOTAL OUT =       95352.6484             TOTAL OUT =         856.5621

            IN - OUT =          -8.3516              IN - OUT =      -5.2490E-02

 PERCENT DISCREPANCY =          -0.01     PERCENT DISCREPANCY =          -0.01






         TIME SUMMARY AT END OF TIME STEP   24 IN STRESS PERIOD    3
                    SECONDS     MINUTES      HOURS       DAYS        YEARS
                    -----------------------------------------------------------
   TIME STEP LENGTH  86400.      1440.0      24.000      1.0000     2.73785E-03
 STRESS PERIOD TIME 2.07360E+06  34560.      576.00      24.000     6.57084E-02
         TOTAL TIME 1.08000E+07 1.80000E+05  3000.0      125.00     0.34223    
1

 SOLVING FOR HEAD 

 OUTPUT CONTROL FOR STRESS PERIOD    3   TIME STEP   25
    SAVE HEAD FOR ALL LAYERS
    SAVE DRAWDOWN FOR ALL LAYERS
    SAVE BUDGET
    PRINT HEAD FOR ALL LAYERS
    PRINT BUDGET
 UBDSV1 SAVING "         STORAGE" ON UNIT  53 AT TIME STEP 25, STRESS PERIOD   3
 UBDSV2 SAVING "   CONSTANT HEAD" ON UNIT  53 AT TIME STEP 25, STRESS PERIOD   3
 UBDSV1 SAVING "FLOW RIGHT FACE " ON UNIT  53 AT TIME STEP 25, STRESS PERIOD   3
 UBDSV1 SAVING "FLOW FRONT FACE " ON UNIT  53 AT TIME STEP 25, STRESS PERIOD   3
 UBDSV1 SAVING "FLOW LOWER FACE " ON UNIT  53 AT TIME STEP 25, STRESS PERIOD   3
1
              HEAD IN LAYER   1 AT END OF TIME STEP  25 IN STRESS PERIOD    3
  ---------------------------------------------------------------------------

            1           2           3           4           5           6           7           8           9          10
 ........................................................................................................................
   1    9.996       8.454       6.955       5.550       4.296       3.231       2.318       1.503      0.7413      2.4627E-03
   2    9.996       8.407       6.854       5.389       4.098       3.067       2.210       1.442      0.7149      2.3749E-03
   3    9.995       8.322       6.657       5.044       3.627       2.718       2.002       1.334      0.6699      2.2255E-03
   4    9.995       8.223       6.401       4.493       2.630       2.164       1.737       1.215      0.6244      2.0747E-03
   5    9.995       8.171       6.223       3.872     -0.1525       1.541       1.558       1.158      0.6068      2.0164E-03
   6    9.995       8.240       6.432       4.535       2.677       2.209       1.776       1.244      0.6393      2.1243E-03
   7    9.995       8.357       6.723       5.133       3.727       2.815       2.085       1.394      0.7011      2.3294E-03
   8    9.996       8.465       6.964       5.537       4.263       3.227       2.345       1.539      0.7652      2.5420E-03
   9    9.996       8.542       7.122       5.777       4.552       3.476       2.521       1.645      0.8142      2.7049E-03
  10    9.996       8.580       7.200       5.889       4.681       3.591       2.607       1.700      0.8402      2.7910E-03
1
              HEAD IN LAYER   2 AT END OF TIME STEP  25 IN STRESS PERIOD    3
  ---------------------------------------------------------------------------

            1           2           3           4           5           6           7           8           9          10
 ........................................................................................................................
   1    9.996       8.454       6.955       5.550       4.296       3.231       2.318       1.503      0.7413      2.4627E-03
   2    9.996       8.407       6.854       5.389       4.098       3.067       2.210       1.442      0.7149      2.3749E-03
   3    9.995       8.322       6.657       5.044       3.628       2.718       2.002       1.334      0.6699      2.2255E-03
   4    9.995       8.223       6.401       4.494       2.640       2.164       1.737       1.215      0.6244      2.0747E-03
   5    9.995       8.171       6.223       3.882      0.3423       1.551       1.558       1.158      0.6068      2.0164E-03
   6    9.995       8.240       6.432       4.535       2.687       2.210       1.776       1.244      0.6393      2.1243E-03
   7    9.995       8.357       6.723       5.133       3.727       2.815       2.085       1.394      0.7011      2.3294E-03
   8    9.996       8.465       6.964       5.537       4.263       3.227       2.345       1.539      0.7652      2.5420E-03
   9    9.996       8.542       7.122       5.777       4.552       3.476       2.521       1.645      0.8142      2.7049E-03
  10    9.996       8.580       7.200       5.889       4.681       3.591       2.607       1.700      0.8402      2.7910E-03
1
              HEAD IN LAYER   3 AT END OF TIME STEP  25 IN STRESS PERIOD    3
  ---------------------------------------------------------------------------

            1           2           3           4           5           6           7           8           9          10
 ........................................................................................................................
   1    9.996       8.454       6.955       5.550       4.296       3.231       2.318       1.503      0.7413      2.4627E-03
   2    9.996       8.407       6.854       5.389       4.098       3.067       2.210       1.442      0.7149      2.3749E-03
   3    9.995       8.322       6.657       5.044       3.628       2.718       2.002       1.334      0.6699      2.2255E-03
   4    9.995       8.223       6.401       4.494       2.648       2.164       1.737       1.215      0.6244      2.0747E-03
   5    9.995       8.171       6.223       3.890      0.5782       1.559       1.558       1.158      0.6068      2.0164E-03
   6    9.995       8.240       6.432       4.536       2.695       2.210       1.776       1.244      0.6393      2.1243E-03
   7    9.995       8.357       6.723       5.133       3.727       2.815       2.085       1.394      0.7011      2.3294E-03
   8    9.996       8.465       6.964       5.537       4.263       3.227       2.345       1.539      0.7652      2.5420E-03
   9    9.996       8.542       7.122       5.777       4.552       3.476       2.521       1.645      0.8142      2.7049E-03
  10    9.996       8.580       7.200       5.889       4.681       3.591       2.607       1.700      0.8402      2.7910E-03

 HEAD WILL BE SAVED ON UNIT   51 AT END OF TIME STEP   25, STRESS PERIOD    3

 DRAWDOWN WILL BE SAVED ON UNIT   52 AT END OF TIME STEP   25, STRESS PERIOD    3
1
  VOLUMETRIC BUDGET FOR ENTIRE MODEL AT END OF TIME STEP   25, STRESS PERIOD   3
  ------------------------------------------------------------------------------

     CUMULATIVE VOLUMES      L**3       RATES FOR THIS TIME STEP      L**3/T
     ------------------                 ------------------------

           IN:                                      IN:
           ---                                      ---
             STORAGE =       29758.5918               STORAGE =          45.0182
       CONSTANT HEAD =           0.0000         CONSTANT HEAD =           0.0000
               WELLS =           0.0000                 WELLS =           0.0000
       RIVER LEAKAGE =       66440.3516         RIVER LEAKAGE =         809.6218

            TOTAL IN =       96198.9453              TOTAL IN =         854.6400

          OUT:                                     OUT:
          ----                                     ----
             STORAGE =       2.9439E-02               STORAGE =           0.0000
       CONSTANT HEAD =           0.0000         CONSTANT HEAD =           0.0000
               WELLS =       12500.0000                 WELLS =         500.0000
       RIVER LEAKAGE =       83707.3047         RIVER LEAKAGE =         354.6866

           TOTAL OUT =       96207.3359             TOTAL OUT =         854.6866

            IN - OUT =          -8.3906              IN - OUT =      -4.6692E-02

 PERCENT DISCREPANCY =          -0.01     PERCENT DISCREPANCY =          -0.01






         TIME SUMMARY AT END OF TIME STEP   25 IN STRESS PERIOD    3
                    SECONDS     MINUTES      HOURS       DAYS        YEARS
                    -----------------------------------------------------------
   TIME STEP LENGTH  86400.      1440.0      24.000      1.0000     2.73785E-03
 STRESS PERIOD TIME 2.16000E+06  36000.      600.00      25.000     6.84463E-02
         TOTAL TIME 1.08864E+07 1.81440E+05  3024.0      126.00     0.34497    
1

 SOLVING FOR HEAD 

 OUTPUT CONTROL FOR STRESS PERIOD    3   TIME STEP   26
    SAVE HEAD FOR ALL LAYERS
    SAVE DRAWDOWN FOR ALL LAYERS
    SAVE BUDGET
    PRINT HEAD FOR ALL LAYERS
    PRINT BUDGET
 UBDSV1 SAVING "         STORAGE" ON UNIT  53 AT TIME STEP 26, STRESS PERIOD   3
 UBDSV2 SAVING "   CONSTANT HEAD" ON UNIT  53 AT TIME STEP 26, STRESS PERIOD   3
 UBDSV1 SAVING "FLOW RIGHT FACE " ON UNIT  53 AT TIME STEP 26, STRESS PERIOD   3
 UBDSV1 SAVING "FLOW FRONT FACE " ON UNIT  53 AT TIME STEP 26, STRESS PERIOD   3
 UBDSV1 SAVING "FLOW LOWER FACE " ON UNIT  53 AT TIME STEP 26, STRESS PERIOD   3
1
              HEAD IN LAYER   1 AT END OF TIME STEP  26 IN STRESS PERIOD    3
  ---------------------------------------------------------------------------

            1           2           3           4           5           6           7           8           9          10
 ........................................................................................................................
   1    9.996       8.450       6.949       5.541       4.287       3.221       2.309       1.496      0.7379      2.4512E-03
   2    9.996       8.404       6.847       5.380       4.088       3.057       2.201       1.436      0.7114      2.3634E-03
   3    9.995       8.318       6.651       5.035       3.617       2.708       1.993       1.328      0.6664      2.2141E-03
   4    9.995       8.220       6.395       4.484       2.619       2.153       1.728       1.209      0.6210      2.0634E-03
   5    9.995       8.168       6.216       3.863     -0.1658       1.530       1.549       1.151      0.6034      2.0051E-03
   6    9.995       8.236       6.426       4.526       2.666       2.199       1.768       1.237      0.6360      2.1132E-03
   7    9.995       8.354       6.717       5.124       3.717       2.805       2.077       1.388      0.6978      2.3183E-03
   8    9.996       8.462       6.957       5.528       4.254       3.218       2.337       1.533      0.7619      2.5310E-03
   9    9.996       8.539       7.116       5.769       4.542       3.466       2.512       1.639      0.8109      2.6939E-03
  10    9.996       8.577       7.193       5.881       4.672       3.582       2.599       1.694      0.8369      2.7800E-03
1
              HEAD IN LAYER   2 AT END OF TIME STEP  26 IN STRESS PERIOD    3
  ---------------------------------------------------------------------------

            1           2           3           4           5           6           7           8           9          10
 ........................................................................................................................
   1    9.996       8.450       6.949       5.541       4.287       3.221       2.309       1.496      0.7379      2.4512E-03
   2    9.996       8.404       6.847       5.380       4.088       3.057       2.201       1.436      0.7114      2.3634E-03
   3    9.995       8.318       6.651       5.035       3.617       2.708       1.993       1.328      0.6664      2.2141E-03
   4    9.995       8.220       6.395       4.485       2.629       2.154       1.728       1.209      0.6210      2.0634E-03
   5    9.995       8.168       6.217       3.872      0.3293       1.540       1.549       1.151      0.6034      2.0051E-03
   6    9.995       8.236       6.426       4.527       2.676       2.200       1.768       1.237      0.6360      2.1132E-03
   7    9.995       8.354       6.717       5.124       3.717       2.805       2.077       1.388      0.6978      2.3183E-03
   8    9.996       8.462       6.957       5.528       4.254       3.218       2.337       1.533      0.7619      2.5310E-03
   9    9.996       8.539       7.116       5.769       4.542       3.466       2.512       1.639      0.8109      2.6939E-03
  10    9.996       8.577       7.193       5.881       4.672       3.582       2.599       1.694      0.8369      2.7800E-03
1
              HEAD IN LAYER   3 AT END OF TIME STEP  26 IN STRESS PERIOD    3
  ---------------------------------------------------------------------------

            1           2           3           4           5           6           7           8           9          10
 ........................................................................................................................
   1    9.996       8.450       6.949       5.541       4.287       3.221       2.309       1.496      0.7379      2.4512E-03
   2    9.996       8.404       6.847       5.380       4.088       3.057       2.201       1.436      0.7114      2.3635E-03
   3    9.995       8.318       6.651       5.035       3.618       2.708       1.993       1.328      0.6664      2.2141E-03
   4    9.995       8.220       6.395       4.485       2.637       2.154       1.728       1.209      0.6210      2.0634E-03
   5    9.995       8.168       6.217       3.880      0.5655       1.548       1.549       1.151      0.6034      2.0051E-03
   6    9.995       8.236       6.426       4.527       2.684       2.200       1.768       1.237      0.6360      2.1132E-03
   7    9.995       8.354       6.717       5.124       3.717       2.805       2.077       1.388      0.6978      2.3183E-03
   8    9.996       8.462       6.957       5.528       4.254       3.218       2.337       1.533      0.7619      2.5310E-03
   9    9.996       8.539       7.116       5.769       4.542       3.466       2.512       1.639      0.8109      2.6939E-03
  10    9.996       8.577       7.193       5.881       4.672       3.582       2.599       1.694      0.8369      2.7800E-03

 HEAD WILL BE SAVED ON UNIT   51 AT END OF TIME STEP   26, STRESS PERIOD    3

 DRAWDOWN WILL BE SAVED ON UNIT   52 AT END OF TIME STEP   26, STRESS PERIOD    3
1
  VOLUMETRIC BUDGET FOR ENTIRE MODEL AT END OF TIME STEP   26, STRESS PERIOD   3
  ------------------------------------------------------------------------------

     CUMULATIVE VOLUMES      L**3       RATES FOR THIS TIME STEP      L**3/T
     ------------------                 ------------------------

           IN:                                      IN:
           ---                                      ---
             STORAGE =       29800.2461               STORAGE =          41.6535
       CONSTANT HEAD =           0.0000         CONSTANT HEAD =           0.0000
               WELLS =           0.0000                 WELLS =           0.0000
       RIVER LEAKAGE =       67251.6484         RIVER LEAKAGE =         811.2993

            TOTAL IN =       97051.8906              TOTAL IN =         852.9528

          OUT:                                     OUT:
          ----                                     ----
             STORAGE =       2.9439E-02               STORAGE =           0.0000
       CONSTANT HEAD =           0.0000         CONSTANT HEAD =           0.0000
               WELLS =       13000.0000                 WELLS =         500.0000
       RIVER LEAKAGE =       84060.3125         RIVER LEAKAGE =         353.0045

           TOTAL OUT =       97060.3438             TOTAL OUT =         853.0045

            IN - OUT =          -8.4531              IN - OUT =      -5.1697E-02

 PERCENT DISCREPANCY =          -0.01     PERCENT DISCREPANCY =          -0.01






         TIME SUMMARY AT END OF TIME STEP   26 IN STRESS PERIOD    3
                    SECONDS     MINUTES      HOURS       DAYS        YEARS
                    -----------------------------------------------------------
   TIME STEP LENGTH  86400.      1440.0      24.000      1.0000     2.73785E-03
 STRESS PERIOD TIME 2.24640E+06  37440.      624.00      26.000     7.11841E-02
         TOTAL TIME 1.09728E+07 1.82880E+05  3048.0      127.00     0.34771    
1

 SOLVING FOR HEAD 

 OUTPUT CONTROL FOR STRESS PERIOD    3   TIME STEP   27
    SAVE HEAD FOR ALL LAYERS
    SAVE DRAWDOWN FOR ALL LAYERS
    SAVE BUDGET
    PRINT HEAD FOR ALL LAYERS
    PRINT BUDGET
 UBDSV1 SAVING "         STORAGE" ON UNIT  53 AT TIME STEP 27, STRESS PERIOD   3
 UBDSV2 SAVING "   CONSTANT HEAD" ON UNIT  53 AT TIME STEP 27, STRESS PERIOD   3
 UBDSV1 SAVING "FLOW RIGHT FACE " ON UNIT  53 AT TIME STEP 27, STRESS PERIOD   3
 UBDSV1 SAVING "FLOW FRONT FACE " ON UNIT  53 AT TIME STEP 27, STRESS PERIOD   3
 UBDSV1 SAVING "FLOW LOWER FACE " ON UNIT  53 AT TIME STEP 27, STRESS PERIOD   3
1
              HEAD IN LAYER   1 AT END OF TIME STEP  27 IN STRESS PERIOD    3
  ---------------------------------------------------------------------------

            1           2           3           4           5           6           7           8           9          10
 ........................................................................................................................
   1    9.996       8.447       6.943       5.533       4.278       3.212       2.301       1.490      0.7348      2.4409E-03
   2    9.996       8.401       6.842       5.372       4.079       3.048       2.193       1.430      0.7084      2.3532E-03
   3    9.995       8.315       6.645       5.027       3.608       2.699       1.985       1.322      0.6633      2.2038E-03
   4    9.995       8.217       6.389       4.476       2.609       2.144       1.720       1.203      0.6179      2.0531E-03
   5    9.995       8.165       6.210       3.854     -0.1787       1.520       1.541       1.145      0.6003      1.9949E-03
   6    9.995       8.233       6.420       4.518       2.656       2.190       1.760       1.231      0.6329      2.1031E-03
   7    9.995       8.350       6.711       5.116       3.708       2.796       2.069       1.382      0.6948      2.3083E-03
   8    9.996       8.459       6.952       5.521       4.245       3.209       2.329       1.527      0.7589      2.5211E-03
   9    9.996       8.536       7.111       5.761       4.534       3.457       2.505       1.633      0.8080      2.6841E-03
  10    9.996       8.574       7.188       5.873       4.663       3.573       2.591       1.688      0.8339      2.7702E-03
1
              HEAD IN LAYER   2 AT END OF TIME STEP  27 IN STRESS PERIOD    3
  ---------------------------------------------------------------------------

            1           2           3           4           5           6           7           8           9          10
 ........................................................................................................................
   1    9.996       8.447       6.943       5.533       4.278       3.212       2.301       1.490      0.7348      2.4409E-03
   2    9.996       8.401       6.842       5.372       4.079       3.048       2.193       1.430      0.7084      2.3532E-03
   3    9.995       8.315       6.645       5.027       3.608       2.699       1.985       1.322      0.6633      2.2038E-03
   4    9.995       8.217       6.389       4.476       2.619       2.144       1.720       1.203      0.6179      2.0531E-03
   5    9.995       8.165       6.210       3.864      0.3168       1.530       1.541       1.145      0.6003      1.9949E-03
   6    9.995       8.233       6.420       4.518       2.666       2.190       1.760       1.231      0.6329      2.1031E-03
   7    9.995       8.350       6.711       5.116       3.708       2.796       2.069       1.382      0.6948      2.3083E-03
   8    9.996       8.459       6.952       5.521       4.245       3.209       2.329       1.527      0.7589      2.5211E-03
   9    9.996       8.536       7.111       5.761       4.534       3.457       2.505       1.633      0.8080      2.6841E-03
  10    9.996       8.574       7.188       5.873       4.663       3.573       2.591       1.688      0.8339      2.7702E-03
1
              HEAD IN LAYER   3 AT END OF TIME STEP  27 IN STRESS PERIOD    3
  ---------------------------------------------------------------------------

            1           2           3           4           5           6           7           8           9          10
 ........................................................................................................................
   1    9.996       8.447       6.943       5.533       4.278       3.212       2.301       1.490      0.7348      2.4409E-03
   2    9.996       8.401       6.842       5.372       4.079       3.048       2.193       1.430      0.7084      2.3532E-03
   3    9.995       8.315       6.645       5.027       3.608       2.699       1.985       1.322      0.6633      2.2038E-03
   4    9.995       8.217       6.389       4.477       2.627       2.145       1.720       1.203      0.6179      2.0531E-03
   5    9.995       8.165       6.211       3.871      0.5532       1.538       1.541       1.145      0.6003      1.9949E-03
   6    9.995       8.233       6.420       4.519       2.674       2.191       1.760       1.231      0.6329      2.1031E-03
   7    9.995       8.350       6.711       5.116       3.708       2.796       2.069       1.382      0.6948      2.3083E-03
   8    9.996       8.459       6.952       5.521       4.245       3.209       2.329       1.527      0.7589      2.5211E-03
   9    9.996       8.536       7.111       5.761       4.534       3.457       2.505       1.633      0.8080      2.6841E-03
  10    9.996       8.574       7.188       5.873       4.663       3.573       2.591       1.688      0.8339      2.7702E-03

 HEAD WILL BE SAVED ON UNIT   51 AT END OF TIME STEP   27, STRESS PERIOD    3

 DRAWDOWN WILL BE SAVED ON UNIT   52 AT END OF TIME STEP   27, STRESS PERIOD    3
1
  VOLUMETRIC BUDGET FOR ENTIRE MODEL AT END OF TIME STEP   27, STRESS PERIOD   3
  ------------------------------------------------------------------------------

     CUMULATIVE VOLUMES      L**3       RATES FOR THIS TIME STEP      L**3/T
     ------------------                 ------------------------

           IN:                                      IN:
           ---                                      ---
             STORAGE =       29838.8574               STORAGE =          38.6114
       CONSTANT HEAD =           0.0000         CONSTANT HEAD =           0.0000
               WELLS =           0.0000                 WELLS =           0.0000
       RIVER LEAKAGE =       68064.4844         RIVER LEAKAGE =         812.8340

            TOTAL IN =       97903.3438              TOTAL IN =         851.4454

          OUT:                                     OUT:
          ----                                     ----
             STORAGE =       2.9439E-02               STORAGE =           0.0000
       CONSTANT HEAD =           0.0000         CONSTANT HEAD =           0.0000
               WELLS =       13500.0000                 WELLS =         500.0000
       RIVER LEAKAGE =       84411.8047         RIVER LEAKAGE =         351.4903

           TOTAL OUT =       97911.8359             TOTAL OUT =         851.4902

            IN - OUT =          -8.4922              IN - OUT =      -4.4800E-02

 PERCENT DISCREPANCY =          -0.01     PERCENT DISCREPANCY =          -0.01






         TIME SUMMARY AT END OF TIME STEP   27 IN STRESS PERIOD    3
                    SECONDS     MINUTES      HOURS       DAYS        YEARS
                    -----------------------------------------------------------
   TIME STEP LENGTH  86400.      1440.0      24.000      1.0000     2.73785E-03
 STRESS PERIOD TIME 2.33280E+06  38880.      648.00      27.000     7.39220E-02
         TOTAL TIME 1.10592E+07 1.84320E+05  3072.0      128.00     0.35044    
1

 SOLVING FOR HEAD 

 OUTPUT CONTROL FOR STRESS PERIOD    3   TIME STEP   28
    SAVE HEAD FOR ALL LAYERS
    SAVE DRAWDOWN FOR ALL LAYERS
    SAVE BUDGET
    PRINT HEAD FOR ALL LAYERS
    PRINT BUDGET
 UBDSV1 SAVING "         STORAGE" ON UNIT  53 AT TIME STEP 28, STRESS PERIOD   3
 UBDSV2 SAVING "   CONSTANT HEAD" ON UNIT  53 AT TIME STEP 28, STRESS PERIOD   3
 UBDSV1 SAVING "FLOW RIGHT FACE " ON UNIT  53 AT TIME STEP 28, STRESS PERIOD   3
 UBDSV1 SAVING "FLOW FRONT FACE " ON UNIT  53 AT TIME STEP 28, STRESS PERIOD   3
 UBDSV1 SAVING "FLOW LOWER FACE " ON UNIT  53 AT TIME STEP 28, STRESS PERIOD   3
1
              HEAD IN LAYER   1 AT END OF TIME STEP  28 IN STRESS PERIOD    3
  ---------------------------------------------------------------------------

            1           2           3           4           5           6           7           8           9          10
 ........................................................................................................................
   1    9.996       8.445       6.937       5.526       4.270       3.204       2.294       1.485      0.7320      2.4317E-03
   2    9.996       8.398       6.836       5.365       4.071       3.040       2.186       1.425      0.7056      2.3439E-03
   3    9.995       8.312       6.639       5.020       3.599       2.690       1.978       1.317      0.6605      2.1945E-03
   4    9.995       8.214       6.383       4.468       2.600       2.135       1.713       1.197      0.6151      2.0438E-03
   5    9.995       8.162       6.205       3.845     -0.1911       1.511       1.533       1.140      0.5975      1.9856E-03
   6    9.995       8.230       6.414       4.510       2.647       2.181       1.752       1.226      0.6301      2.0939E-03
   7    9.995       8.348       6.706       5.109       3.700       2.788       2.062       1.377      0.6921      2.2993E-03
   8    9.996       8.456       6.947       5.514       4.237       3.201       2.323       1.522      0.7562      2.5122E-03
   9    9.996       8.533       7.106       5.755       4.526       3.450       2.498       1.628      0.8053      2.6752E-03
  10    9.996       8.572       7.183       5.867       4.655       3.566       2.585       1.683      0.8313      2.7614E-03
1
              HEAD IN LAYER   2 AT END OF TIME STEP  28 IN STRESS PERIOD    3
  ---------------------------------------------------------------------------

            1           2           3           4           5           6           7           8           9          10
 ........................................................................................................................
   1    9.996       8.445       6.937       5.526       4.270       3.204       2.294       1.485      0.7320      2.4317E-03
   2    9.996       8.398       6.836       5.365       4.071       3.040       2.186       1.425      0.7056      2.3439E-03
   3    9.995       8.312       6.639       5.020       3.600       2.690       1.978       1.317      0.6605      2.1945E-03
   4    9.995       8.214       6.383       4.469       2.610       2.135       1.713       1.197      0.6151      2.0438E-03
   5    9.995       8.162       6.205       3.855      0.3049       1.521       1.533       1.140      0.5975      1.9856E-03
   6    9.995       8.230       6.414       4.511       2.657       2.181       1.752       1.226      0.6301      2.0939E-03
   7    9.995       8.348       6.706       5.109       3.700       2.788       2.062       1.377      0.6921      2.2993E-03
   8    9.996       8.456       6.947       5.514       4.237       3.201       2.323       1.522      0.7562      2.5122E-03
   9    9.996       8.533       7.106       5.755       4.526       3.450       2.498       1.628      0.8053      2.6752E-03
  10    9.996       8.572       7.183       5.867       4.655       3.566       2.585       1.683      0.8313      2.7614E-03
1
              HEAD IN LAYER   3 AT END OF TIME STEP  28 IN STRESS PERIOD    3
  ---------------------------------------------------------------------------

            1           2           3           4           5           6           7           8           9          10
 ........................................................................................................................
   1    9.996       8.445       6.937       5.526       4.270       3.204       2.294       1.485      0.7320      2.4317E-03
   2    9.996       8.398       6.836       5.365       4.071       3.040       2.186       1.425      0.7056      2.3439E-03
   3    9.995       8.312       6.639       5.020       3.600       2.690       1.978       1.317      0.6605      2.1945E-03
   4    9.995       8.214       6.383       4.469       2.618       2.136       1.713       1.197      0.6151      2.0438E-03
   5    9.995       8.162       6.205       3.863      0.5415       1.529       1.534       1.140      0.5975      1.9856E-03
   6    9.995       8.230       6.414       4.511       2.665       2.182       1.753       1.226      0.6301      2.0939E-03
   7    9.995       8.348       6.706       5.109       3.700       2.788       2.062       1.377      0.6921      2.2993E-03
   8    9.996       8.456       6.947       5.514       4.237       3.201       2.323       1.522      0.7562      2.5122E-03
   9    9.996       8.533       7.106       5.755       4.526       3.450       2.498       1.628      0.8053      2.6752E-03
  10    9.996       8.572       7.183       5.867       4.655       3.566       2.585       1.683      0.8313      2.7614E-03

 HEAD WILL BE SAVED ON UNIT   51 AT END OF TIME STEP   28, STRESS PERIOD    3

 DRAWDOWN WILL BE SAVED ON UNIT   52 AT END OF TIME STEP   28, STRESS PERIOD    3
1
  VOLUMETRIC BUDGET FOR ENTIRE MODEL AT END OF TIME STEP   28, STRESS PERIOD   3
  ------------------------------------------------------------------------------

     CUMULATIVE VOLUMES      L**3       RATES FOR THIS TIME STEP      L**3/T
     ------------------                 ------------------------

           IN:                                      IN:
           ---                                      ---
             STORAGE =       29874.7090               STORAGE =          35.8518
       CONSTANT HEAD =           0.0000         CONSTANT HEAD =           0.0000
               WELLS =           0.0000                 WELLS =           0.0000
       RIVER LEAKAGE =       68878.7031         RIVER LEAKAGE =         814.2217

            TOTAL IN =       98753.4141              TOTAL IN =         850.0734

          OUT:                                     OUT:
          ----                                     ----
             STORAGE =       2.9439E-02               STORAGE =           0.0000
       CONSTANT HEAD =           0.0000         CONSTANT HEAD =           0.0000
               WELLS =       14000.0000                 WELLS =         500.0000
       RIVER LEAKAGE =       84761.9297         RIVER LEAKAGE =         350.1225

           TOTAL OUT =       98761.9609             TOTAL OUT =         850.1224

            IN - OUT =          -8.5469              IN - OUT =      -4.9011E-02

 PERCENT DISCREPANCY =          -0.01     PERCENT DISCREPANCY =          -0.01






         TIME SUMMARY AT END OF TIME STEP   28 IN STRESS PERIOD    3
                    SECONDS     MINUTES      HOURS       DAYS        YEARS
                    -----------------------------------------------------------
   TIME STEP LENGTH  86400.      1440.0      24.000      1.0000     2.73785E-03
 STRESS PERIOD TIME 2.41920E+06  40320.      672.00      28.000     7.66598E-02
         TOTAL TIME 1.11456E+07 1.85760E+05  3096.0      129.00     0.35318    
1

 SOLVING FOR HEAD 

 OUTPUT CONTROL FOR STRESS PERIOD    3   TIME STEP   29
    SAVE HEAD FOR ALL LAYERS
    SAVE DRAWDOWN FOR ALL LAYERS
    SAVE BUDGET
    PRINT HEAD FOR ALL LAYERS
    PRINT BUDGET
 UBDSV1 SAVING "         STORAGE" ON UNIT  53 AT TIME STEP 29, STRESS PERIOD   3
 UBDSV2 SAVING "   CONSTANT HEAD" ON UNIT  53 AT TIME STEP 29, STRESS PERIOD   3
 UBDSV1 SAVING "FLOW RIGHT FACE " ON UNIT  53 AT TIME STEP 29, STRESS PERIOD   3
 UBDSV1 SAVING "FLOW FRONT FACE " ON UNIT  53 AT TIME STEP 29, STRESS PERIOD   3
 UBDSV1 SAVING "FLOW LOWER FACE " ON UNIT  53 AT TIME STEP 29, STRESS PERIOD   3
1
              HEAD IN LAYER   1 AT END OF TIME STEP  29 IN STRESS PERIOD    3
  ---------------------------------------------------------------------------

            1           2           3           4           5           6           7           8           9          10
 ........................................................................................................................
   1    9.996       8.442       6.933       5.520       4.262       3.196       2.288       1.481      0.7295      2.4234E-03
   2    9.996       8.395       6.831       5.359       4.063       3.032       2.179       1.420      0.7031      2.3356E-03
   3    9.995       8.310       6.634       5.013       3.592       2.683       1.972       1.312      0.6580      2.1861E-03
   4    9.995       8.211       6.378       4.461       2.591       2.127       1.706       1.193      0.6125      2.0353E-03
   5    9.995       8.159       6.199       3.838     -0.2029       1.502       1.526       1.135      0.5949      1.9771E-03
   6    9.995       8.228       6.409       4.503       2.638       2.173       1.746       1.221      0.6276      2.0855E-03
   7    9.995       8.345       6.701       5.103       3.692       2.781       2.055       1.372      0.6896      2.2910E-03
   8    9.996       8.454       6.942       5.507       4.230       3.194       2.316       1.518      0.7538      2.5041E-03
   9    9.996       8.531       7.101       5.749       4.519       3.443       2.492       1.624      0.8029      2.6672E-03
  10    9.996       8.569       7.178       5.861       4.649       3.559       2.578       1.679      0.8289      2.7535E-03
1
              HEAD IN LAYER   2 AT END OF TIME STEP  29 IN STRESS PERIOD    3
  ---------------------------------------------------------------------------

            1           2           3           4           5           6           7           8           9          10
 ........................................................................................................................
   1    9.996       8.442       6.933       5.520       4.262       3.196       2.288       1.481      0.7295      2.4234E-03
   2    9.996       8.395       6.831       5.359       4.063       3.032       2.179       1.420      0.7031      2.3356E-03
   3    9.995       8.310       6.634       5.013       3.592       2.683       1.972       1.312      0.6580      2.1861E-03
   4    9.995       8.211       6.378       4.461       2.601       2.127       1.706       1.193      0.6125      2.0353E-03
   5    9.995       8.159       6.200       3.848      0.2934       1.512       1.526       1.135      0.5949      1.9771E-03
   6    9.995       8.228       6.409       4.503       2.648       2.173       1.746       1.221      0.6276      2.0855E-03
   7    9.995       8.345       6.701       5.103       3.692       2.781       2.055       1.372      0.6896      2.2910E-03
   8    9.996       8.454       6.942       5.507       4.230       3.194       2.316       1.518      0.7538      2.5041E-03
   9    9.996       8.531       7.101       5.749       4.519       3.443       2.492       1.624      0.8029      2.6672E-03
  10    9.996       8.569       7.178       5.861       4.649       3.559       2.578       1.679      0.8289      2.7535E-03
1
              HEAD IN LAYER   3 AT END OF TIME STEP  29 IN STRESS PERIOD    3
  ---------------------------------------------------------------------------

            1           2           3           4           5           6           7           8           9          10
 ........................................................................................................................
   1    9.996       8.442       6.933       5.520       4.262       3.196       2.288       1.481      0.7295      2.4234E-03
   2    9.996       8.395       6.831       5.359       4.063       3.032       2.179       1.420      0.7031      2.3356E-03
   3    9.995       8.310       6.634       5.013       3.592       2.683       1.972       1.312      0.6580      2.1861E-03
   4    9.995       8.211       6.378       4.462       2.609       2.128       1.706       1.193      0.6125      2.0353E-03
   5    9.995       8.159       6.200       3.855      0.5304       1.520       1.527       1.135      0.5949      1.9771E-03
   6    9.995       8.228       6.409       4.504       2.656       2.174       1.746       1.221      0.6276      2.0855E-03
   7    9.995       8.345       6.701       5.103       3.692       2.781       2.055       1.372      0.6896      2.2910E-03
   8    9.996       8.454       6.942       5.507       4.230       3.194       2.316       1.518      0.7538      2.5041E-03
   9    9.996       8.531       7.101       5.749       4.519       3.443       2.492       1.624      0.8029      2.6672E-03
  10    9.996       8.569       7.178       5.861       4.649       3.559       2.578       1.679      0.8289      2.7535E-03

 HEAD WILL BE SAVED ON UNIT   51 AT END OF TIME STEP   29, STRESS PERIOD    3

 DRAWDOWN WILL BE SAVED ON UNIT   52 AT END OF TIME STEP   29, STRESS PERIOD    3
1
  VOLUMETRIC BUDGET FOR ENTIRE MODEL AT END OF TIME STEP   29, STRESS PERIOD   3
  ------------------------------------------------------------------------------

     CUMULATIVE VOLUMES      L**3       RATES FOR THIS TIME STEP      L**3/T
     ------------------                 ------------------------

           IN:                                      IN:
           ---                                      ---
             STORAGE =       29908.0488               STORAGE =          33.3404
       CONSTANT HEAD =           0.0000         CONSTANT HEAD =           0.0000
               WELLS =           0.0000                 WELLS =           0.0000
       RIVER LEAKAGE =       69694.1953         RIVER LEAKAGE =         815.4897

            TOTAL IN =       99602.2422              TOTAL IN =         848.8301

          OUT:                                     OUT:
          ----                                     ----
             STORAGE =       2.9439E-02               STORAGE =           0.0000
       CONSTANT HEAD =           0.0000         CONSTANT HEAD =           0.0000
               WELLS =       14500.0000                 WELLS =         500.0000
       RIVER LEAKAGE =       85110.8125         RIVER LEAKAGE =         348.8828

           TOTAL OUT =       99610.8438             TOTAL OUT =         848.8828

            IN - OUT =          -8.6016              IN - OUT =      -5.2673E-02

 PERCENT DISCREPANCY =          -0.01     PERCENT DISCREPANCY =          -0.01






         TIME SUMMARY AT END OF TIME STEP   29 IN STRESS PERIOD    3
                    SECONDS     MINUTES      HOURS       DAYS        YEARS
                    -----------------------------------------------------------
   TIME STEP LENGTH  86400.      1440.0      24.000      1.0000     2.73785E-03
 STRESS PERIOD TIME 2.50560E+06  41760.      696.00      29.000     7.93977E-02
         TOTAL TIME 1.12320E+07 1.87200E+05  3120.0      130.00     0.35592    
1

 SOLVING FOR HEAD 

 OUTPUT CONTROL FOR STRESS PERIOD    3   TIME STEP   30
    SAVE HEAD FOR ALL LAYERS
    SAVE DRAWDOWN FOR ALL LAYERS
    SAVE BUDGET
    PRINT HEAD FOR ALL LAYERS
    PRINT BUDGET
 UBDSV1 SAVING "         STORAGE" ON UNIT  53 AT TIME STEP 30, STRESS PERIOD   3
 UBDSV2 SAVING "   CONSTANT HEAD" ON UNIT  53 AT TIME STEP 30, STRESS PERIOD   3
 UBDSV1 SAVING "FLOW RIGHT FACE " ON UNIT  53 AT TIME STEP 30, STRESS PERIOD   3
 UBDSV1 SAVING "FLOW FRONT FACE " ON UNIT  53 AT TIME STEP 30, STRESS PERIOD   3
 UBDSV1 SAVING "FLOW LOWER FACE " ON UNIT  53 AT TIME STEP 30, STRESS PERIOD   3
1
              HEAD IN LAYER   1 AT END OF TIME STEP  30 IN STRESS PERIOD    3
  ---------------------------------------------------------------------------

            1           2           3           4           5           6           7           8           9          10
 ........................................................................................................................
   1    9.996       8.440       6.928       5.514       4.256       3.190       2.282       1.476      0.7273      2.4159E-03
   2    9.996       8.393       6.827       5.353       4.056       3.026       2.174       1.416      0.7008      2.3280E-03
   3    9.995       8.307       6.630       5.007       3.584       2.676       1.966       1.307      0.6557      2.1784E-03
   4    9.995       8.209       6.373       4.454       2.583       2.119       1.700       1.188      0.6102      2.0275E-03
   5    9.995       8.156       6.194       3.830     -0.2143       1.494       1.520       1.131      0.5926      1.9693E-03
   6    9.995       8.225       6.404       4.496       2.630       2.165       1.740       1.217      0.6253      2.0778E-03
   7    9.995       8.343       6.696       5.096       3.685       2.774       2.049       1.368      0.6873      2.2835E-03
   8    9.996       8.452       6.938       5.502       4.223       3.188       2.311       1.514      0.7516      2.4968E-03
   9    9.996       8.528       7.097       5.743       4.513       3.437       2.486       1.620      0.8007      2.6600E-03
  10    9.996       8.567       7.174       5.855       4.642       3.553       2.573       1.675      0.8267      2.7463E-03
1
              HEAD IN LAYER   2 AT END OF TIME STEP  30 IN STRESS PERIOD    3
  ---------------------------------------------------------------------------

            1           2           3           4           5           6           7           8           9          10
 ........................................................................................................................
   1    9.996       8.440       6.928       5.514       4.256       3.190       2.282       1.476      0.7273      2.4159E-03
   2    9.996       8.393       6.827       5.353       4.056       3.026       2.174       1.416      0.7008      2.3280E-03
   3    9.995       8.307       6.630       5.007       3.585       2.676       1.966       1.307      0.6557      2.1784E-03
   4    9.995       8.209       6.373       4.455       2.593       2.120       1.700       1.188      0.6102      2.0275E-03
   5    9.995       8.156       6.195       3.840      0.2825       1.504       1.520       1.131      0.5926      1.9693E-03
   6    9.995       8.225       6.404       4.497       2.640       2.166       1.740       1.217      0.6253      2.0778E-03
   7    9.995       8.343       6.696       5.096       3.685       2.774       2.049       1.368      0.6873      2.2835E-03
   8    9.996       8.452       6.938       5.502       4.223       3.188       2.311       1.514      0.7516      2.4968E-03
   9    9.996       8.528       7.097       5.743       4.513       3.437       2.486       1.620      0.8007      2.6600E-03
  10    9.996       8.567       7.174       5.855       4.642       3.553       2.573       1.675      0.8267      2.7463E-03
1
              HEAD IN LAYER   3 AT END OF TIME STEP  30 IN STRESS PERIOD    3
  ---------------------------------------------------------------------------

            1           2           3           4           5           6           7           8           9          10
 ........................................................................................................................
   1    9.996       8.440       6.928       5.514       4.256       3.190       2.282       1.476      0.7273      2.4159E-03
   2    9.996       8.393       6.827       5.353       4.056       3.026       2.174       1.416      0.7008      2.3280E-03
   3    9.995       8.307       6.630       5.007       3.585       2.676       1.966       1.307      0.6557      2.1784E-03
   4    9.995       8.209       6.373       4.455       2.601       2.120       1.700       1.188      0.6102      2.0276E-03
   5    9.995       8.156       6.195       3.848      0.5197       1.512       1.520       1.131      0.5926      1.9693E-03
   6    9.995       8.225       6.404       4.497       2.648       2.166       1.740       1.217      0.6253      2.0778E-03
   7    9.995       8.343       6.696       5.097       3.685       2.774       2.049       1.368      0.6873      2.2835E-03
   8    9.996       8.452       6.938       5.502       4.223       3.188       2.311       1.514      0.7516      2.4968E-03
   9    9.996       8.528       7.097       5.743       4.513       3.437       2.486       1.620      0.8007      2.6600E-03
  10    9.996       8.567       7.174       5.855       4.642       3.553       2.573       1.675      0.8267      2.7463E-03

 HEAD WILL BE SAVED ON UNIT   51 AT END OF TIME STEP   30, STRESS PERIOD    3

 DRAWDOWN WILL BE SAVED ON UNIT   52 AT END OF TIME STEP   30, STRESS PERIOD    3
1
  VOLUMETRIC BUDGET FOR ENTIRE MODEL AT END OF TIME STEP   30, STRESS PERIOD   3
  ------------------------------------------------------------------------------

     CUMULATIVE VOLUMES      L**3       RATES FOR THIS TIME STEP      L**3/T
     ------------------                 ------------------------

           IN:                                      IN:
           ---                                      ---
             STORAGE =       29939.0957               STORAGE =          31.0470
       CONSTANT HEAD =           0.0000         CONSTANT HEAD =           0.0000
               WELLS =           0.0000                 WELLS =           0.0000
       RIVER LEAKAGE =       70510.8438         RIVER LEAKAGE =         816.6520

            TOTAL IN =      100449.9375              TOTAL IN =         847.6990

          OUT:                                     OUT:
          ----                                     ----
             STORAGE =       2.9439E-02               STORAGE =           0.0000
       CONSTANT HEAD =           0.0000         CONSTANT HEAD =           0.0000
               WELLS =       15000.0000                 WELLS =         500.0000
       RIVER LEAKAGE =       85458.5703         RIVER LEAKAGE =         347.7554

           TOTAL OUT =      100458.6016             TOTAL OUT =         847.7554

            IN - OUT =          -8.6641              IN - OUT =      -5.6396E-02

 PERCENT DISCREPANCY =          -0.01     PERCENT DISCREPANCY =          -0.01






         TIME SUMMARY AT END OF TIME STEP   30 IN STRESS PERIOD    3
                    SECONDS     MINUTES      HOURS       DAYS        YEARS
                    -----------------------------------------------------------
   TIME STEP LENGTH  86400.      1440.0      24.000      1.0000     2.73785E-03
 STRESS PERIOD TIME 2.59200E+06  43200.      720.00      30.000     8.21355E-02
         TOTAL TIME 1.13184E+07 1.88640E+05  3144.0      131.00     0.35866    
1

 SOLVING FOR HEAD 

 OUTPUT CONTROL FOR STRESS PERIOD    3   TIME STEP   31
    SAVE HEAD FOR ALL LAYERS
    SAVE DRAWDOWN FOR ALL LAYERS
    SAVE BUDGET
    PRINT HEAD FOR ALL LAYERS
    PRINT BUDGET
 UBDSV1 SAVING "         STORAGE" ON UNIT  53 AT TIME STEP 31, STRESS PERIOD   3
 UBDSV2 SAVING "   CONSTANT HEAD" ON UNIT  53 AT TIME STEP 31, STRESS PERIOD   3
 UBDSV1 SAVING "FLOW RIGHT FACE " ON UNIT  53 AT TIME STEP 31, STRESS PERIOD   3
 UBDSV1 SAVING "FLOW FRONT FACE " ON UNIT  53 AT TIME STEP 31, STRESS PERIOD   3
 UBDSV1 SAVING "FLOW LOWER FACE " ON UNIT  53 AT TIME STEP 31, STRESS PERIOD   3
1
              HEAD IN LAYER   1 AT END OF TIME STEP  31 IN STRESS PERIOD    3
  ---------------------------------------------------------------------------

            1           2           3           4           5           6           7           8           9          10
 ........................................................................................................................
   1    9.996       8.438       6.925       5.509       4.250       3.184       2.277       1.472      0.7252      2.4091E-03
   2    9.996       8.391       6.823       5.347       4.050       3.019       2.168       1.412      0.6987      2.3212E-03
   3    9.995       8.305       6.626       5.001       3.578       2.669       1.960       1.303      0.6536      2.1714E-03
   4    9.995       8.206       6.369       4.448       2.575       2.112       1.694       1.184      0.6080      2.0204E-03
   5    9.995       8.154       6.190       3.823     -0.2251       1.486       1.514       1.126      0.5904      1.9621E-03
   6    9.995       8.223       6.400       4.490       2.623       2.159       1.734       1.213      0.6232      2.0707E-03
   7    9.995       8.341       6.692       5.091       3.678       2.767       2.044       1.364      0.6853      2.2767E-03
   8    9.996       8.450       6.934       5.496       4.217       3.182       2.306       1.510      0.7496      2.4901E-03
   9    9.996       8.526       7.093       5.738       4.507       3.431       2.481       1.616      0.7988      2.6535E-03
  10    9.996       8.565       7.171       5.850       4.637       3.547       2.568       1.671      0.8248      2.7399E-03
1
              HEAD IN LAYER   2 AT END OF TIME STEP  31 IN STRESS PERIOD    3
  ---------------------------------------------------------------------------

            1           2           3           4           5           6           7           8           9          10
 ........................................................................................................................
   1    9.996       8.438       6.925       5.509       4.250       3.184       2.277       1.472      0.7252      2.4091E-03
   2    9.996       8.391       6.823       5.347       4.050       3.019       2.168       1.412      0.6987      2.3212E-03
   3    9.995       8.305       6.626       5.001       3.578       2.669       1.960       1.303      0.6536      2.1714E-03
   4    9.995       8.206       6.369       4.448       2.585       2.113       1.694       1.184      0.6080      2.0204E-03
   5    9.995       8.154       6.190       3.833      0.2721       1.496       1.514       1.126      0.5904      1.9621E-03
   6    9.995       8.223       6.400       4.490       2.633       2.159       1.734       1.213      0.6232      2.0707E-03
   7    9.995       8.341       6.692       5.091       3.679       2.767       2.044       1.364      0.6853      2.2767E-03
   8    9.996       8.450       6.934       5.496       4.217       3.182       2.306       1.510      0.7496      2.4901E-03
   9    9.996       8.526       7.093       5.738       4.507       3.431       2.481       1.616      0.7988      2.6535E-03
  10    9.996       8.565       7.171       5.850       4.637       3.547       2.568       1.671      0.8248      2.7399E-03
1
              HEAD IN LAYER   3 AT END OF TIME STEP  31 IN STRESS PERIOD    3
  ---------------------------------------------------------------------------

            1           2           3           4           5           6           7           8           9          10
 ........................................................................................................................
   1    9.996       8.438       6.925       5.509       4.250       3.184       2.277       1.472      0.7252      2.4091E-03
   2    9.996       8.391       6.823       5.347       4.050       3.019       2.168       1.412      0.6987      2.3211E-03
   3    9.995       8.305       6.626       5.001       3.578       2.669       1.960       1.303      0.6536      2.1714E-03
   4    9.995       8.206       6.369       4.449       2.593       2.113       1.694       1.184      0.6080      2.0204E-03
   5    9.995       8.154       6.190       3.841      0.5096       1.504       1.514       1.126      0.5904      1.9621E-03
   6    9.995       8.223       6.400       4.491       2.640       2.159       1.734       1.213      0.6232      2.0707E-03
   7    9.995       8.341       6.692       5.091       3.679       2.767       2.044       1.364      0.6853      2.2767E-03
   8    9.996       8.450       6.934       5.496       4.217       3.182       2.306       1.510      0.7496      2.4901E-03
   9    9.996       8.526       7.093       5.738       4.507       3.431       2.481       1.616      0.7988      2.6535E-03
  10    9.996       8.565       7.171       5.850       4.637       3.547       2.568       1.671      0.8248      2.7399E-03

 HEAD WILL BE SAVED ON UNIT   51 AT END OF TIME STEP   31, STRESS PERIOD    3

 DRAWDOWN WILL BE SAVED ON UNIT   52 AT END OF TIME STEP   31, STRESS PERIOD    3
1
  VOLUMETRIC BUDGET FOR ENTIRE MODEL AT END OF TIME STEP   31, STRESS PERIOD   3
  ------------------------------------------------------------------------------

     CUMULATIVE VOLUMES      L**3       RATES FOR THIS TIME STEP      L**3/T
     ------------------                 ------------------------

           IN:                                      IN:
           ---                                      ---
             STORAGE =       29968.0430               STORAGE =          28.9479
       CONSTANT HEAD =           0.0000         CONSTANT HEAD =           0.0000
               WELLS =           0.0000                 WELLS =           0.0000
       RIVER LEAKAGE =       71328.5703         RIVER LEAKAGE =         817.7239

            TOTAL IN =      101296.6094              TOTAL IN =         846.6718

          OUT:                                     OUT:
          ----                                     ----
             STORAGE =       2.9439E-02               STORAGE =           0.0000
       CONSTANT HEAD =           0.0000         CONSTANT HEAD =           0.0000
               WELLS =       15500.0000                 WELLS =         500.0000
       RIVER LEAKAGE =       85805.2969         RIVER LEAKAGE =         346.7272

           TOTAL OUT =      101305.3281             TOTAL OUT =         846.7272

            IN - OUT =          -8.7188              IN - OUT =      -5.5359E-02

 PERCENT DISCREPANCY =          -0.01     PERCENT DISCREPANCY =          -0.01






         TIME SUMMARY AT END OF TIME STEP   31 IN STRESS PERIOD    3
                    SECONDS     MINUTES      HOURS       DAYS        YEARS
                    -----------------------------------------------------------
   TIME STEP LENGTH  86400.      1440.0      24.000      1.0000     2.73785E-03
 STRESS PERIOD TIME 2.67840E+06  44640.      744.00      31.000     8.48734E-02
         TOTAL TIME 1.14048E+07 1.90080E+05  3168.0      132.00     0.36140    
1

 SOLVING FOR HEAD 

 OUTPUT CONTROL FOR STRESS PERIOD    3   TIME STEP   32
    SAVE HEAD FOR ALL LAYERS
    SAVE DRAWDOWN FOR ALL LAYERS
    SAVE BUDGET
    PRINT HEAD FOR ALL LAYERS
    PRINT BUDGET
 UBDSV1 SAVING "         STORAGE" ON UNIT  53 AT TIME STEP 32, STRESS PERIOD   3
 UBDSV2 SAVING "   CONSTANT HEAD" ON UNIT  53 AT TIME STEP 32, STRESS PERIOD   3
 UBDSV1 SAVING "FLOW RIGHT FACE " ON UNIT  53 AT TIME STEP 32, STRESS PERIOD   3
 UBDSV1 SAVING "FLOW FRONT FACE " ON UNIT  53 AT TIME STEP 32, STRESS PERIOD   3
 UBDSV1 SAVING "FLOW LOWER FACE " ON UNIT  53 AT TIME STEP 32, STRESS PERIOD   3
1
              HEAD IN LAYER   1 AT END OF TIME STEP  32 IN STRESS PERIOD    3
  ---------------------------------------------------------------------------

            1           2           3           4           5           6           7           8           9          10
 ........................................................................................................................
   1    9.996       8.436       6.921       5.504       4.244       3.178       2.272       1.469      0.7233      2.4029E-03
   2    9.996       8.389       6.819       5.342       4.044       3.014       2.163       1.408      0.6968      2.3149E-03
   3    9.995       8.303       6.622       4.996       3.572       2.663       1.955       1.300      0.6517      2.1650E-03
   4    9.995       8.204       6.365       4.442       2.568       2.106       1.689       1.180      0.6061      2.0139E-03
   5    9.995       8.152       6.185       3.817     -0.2354       1.479       1.508       1.123      0.5884      1.9555E-03
   6    9.995       8.221       6.396       4.484       2.615       2.152       1.729       1.209      0.6212      2.0643E-03
   7    9.995       8.339       6.689       5.086       3.672       2.762       2.039       1.360      0.6834      2.2704E-03
   8    9.996       8.448       6.930       5.491       4.212       3.176       2.301       1.506      0.7477      2.4840E-03
   9    9.996       8.525       7.090       5.733       4.502       3.426       2.477       1.613      0.7970      2.6476E-03
  10    9.996       8.563       7.167       5.846       4.631       3.542       2.564       1.668      0.8230      2.7340E-03
1
              HEAD IN LAYER   2 AT END OF TIME STEP  32 IN STRESS PERIOD    3
  ---------------------------------------------------------------------------

            1           2           3           4           5           6           7           8           9          10
 ........................................................................................................................
   1    9.996       8.436       6.921       5.504       4.244       3.178       2.272       1.469      0.7233      2.4029E-03
   2    9.996       8.389       6.819       5.342       4.044       3.014       2.163       1.408      0.6968      2.3149E-03
   3    9.995       8.303       6.622       4.996       3.572       2.663       1.955       1.300      0.6517      2.1650E-03
   4    9.995       8.204       6.365       4.442       2.578       2.106       1.689       1.180      0.6061      2.0139E-03
   5    9.995       8.152       6.186       3.827      0.2622       1.489       1.508       1.123      0.5884      1.9555E-03
   6    9.995       8.221       6.396       4.485       2.625       2.152       1.729       1.209      0.6212      2.0643E-03
   7    9.995       8.339       6.689       5.086       3.672       2.762       2.039       1.360      0.6834      2.2704E-03
   8    9.996       8.448       6.930       5.491       4.212       3.176       2.301       1.506      0.7477      2.4840E-03
   9    9.996       8.525       7.090       5.733       4.502       3.426       2.477       1.613      0.7970      2.6476E-03
  10    9.996       8.563       7.167       5.846       4.631       3.542       2.564       1.668      0.8230      2.7340E-03
1
              HEAD IN LAYER   3 AT END OF TIME STEP  32 IN STRESS PERIOD    3
  ---------------------------------------------------------------------------

            1           2           3           4           5           6           7           8           9          10
 ........................................................................................................................
   1    9.996       8.436       6.921       5.504       4.244       3.178       2.272       1.469      0.7233      2.4029E-03
   2    9.996       8.389       6.819       5.342       4.044       3.014       2.163       1.408      0.6968      2.3149E-03
   3    9.995       8.303       6.622       4.996       3.572       2.663       1.955       1.300      0.6517      2.1650E-03
   4    9.995       8.204       6.365       4.443       2.586       2.107       1.689       1.180      0.6061      2.0139E-03
   5    9.995       8.152       6.186       3.835      0.5000       1.497       1.509       1.123      0.5884      1.9555E-03
   6    9.995       8.221       6.396       4.485       2.633       2.153       1.729       1.209      0.6212      2.0643E-03
   7    9.995       8.339       6.689       5.086       3.673       2.762       2.039       1.360      0.6834      2.2704E-03
   8    9.996       8.448       6.930       5.491       4.212       3.176       2.301       1.506      0.7477      2.4840E-03
   9    9.996       8.525       7.090       5.733       4.502       3.426       2.477       1.613      0.7970      2.6476E-03
  10    9.996       8.563       7.167       5.846       4.631       3.542       2.564       1.668      0.8230      2.7340E-03

 HEAD WILL BE SAVED ON UNIT   51 AT END OF TIME STEP   32, STRESS PERIOD    3

 DRAWDOWN WILL BE SAVED ON UNIT   52 AT END OF TIME STEP   32, STRESS PERIOD    3
1
  VOLUMETRIC BUDGET FOR ENTIRE MODEL AT END OF TIME STEP   32, STRESS PERIOD   3
  ------------------------------------------------------------------------------

     CUMULATIVE VOLUMES      L**3       RATES FOR THIS TIME STEP      L**3/T
     ------------------                 ------------------------

           IN:                                      IN:
           ---                                      ---
             STORAGE =       29995.0645               STORAGE =          27.0206
       CONSTANT HEAD =           0.0000         CONSTANT HEAD =           0.0000
               WELLS =           0.0000                 WELLS =           0.0000
       RIVER LEAKAGE =       72147.2891         RIVER LEAKAGE =         818.7155

            TOTAL IN =      102142.3516              TOTAL IN =         845.7361

          OUT:                                     OUT:
          ----                                     ----
             STORAGE =       2.9439E-02               STORAGE =           0.0000
       CONSTANT HEAD =           0.0000         CONSTANT HEAD =           0.0000
               WELLS =       16000.0000                 WELLS =         500.0000
       RIVER LEAKAGE =       86151.0859         RIVER LEAKAGE =         345.7867

           TOTAL OUT =      102151.1172             TOTAL OUT =         845.7867

            IN - OUT =          -8.7656              IN - OUT =      -5.0659E-02

 PERCENT DISCREPANCY =          -0.01     PERCENT DISCREPANCY =          -0.01






         TIME SUMMARY AT END OF TIME STEP   32 IN STRESS PERIOD    3
                    SECONDS     MINUTES      HOURS       DAYS        YEARS
                    -----------------------------------------------------------
   TIME STEP LENGTH  86400.      1440.0      24.000      1.0000     2.73785E-03
 STRESS PERIOD TIME 2.76480E+06  46080.      768.00      32.000     8.76112E-02
         TOTAL TIME 1.14912E+07 1.91520E+05  3192.0      133.00     0.36413    
1

 SOLVING FOR HEAD 

 OUTPUT CONTROL FOR STRESS PERIOD    3   TIME STEP   33
    SAVE HEAD FOR ALL LAYERS
    SAVE DRAWDOWN FOR ALL LAYERS
    SAVE BUDGET
    PRINT HEAD FOR ALL LAYERS
    PRINT BUDGET
 UBDSV1 SAVING "         STORAGE" ON UNIT  53 AT TIME STEP 33, STRESS PERIOD   3
 UBDSV2 SAVING "   CONSTANT HEAD" ON UNIT  53 AT TIME STEP 33, STRESS PERIOD   3
 UBDSV1 SAVING "FLOW RIGHT FACE " ON UNIT  53 AT TIME STEP 33, STRESS PERIOD   3
 UBDSV1 SAVING "FLOW FRONT FACE " ON UNIT  53 AT TIME STEP 33, STRESS PERIOD   3
 UBDSV1 SAVING "FLOW LOWER FACE " ON UNIT  53 AT TIME STEP 33, STRESS PERIOD   3
1
              HEAD IN LAYER   1 AT END OF TIME STEP  33 IN STRESS PERIOD    3
  ---------------------------------------------------------------------------

            1           2           3           4           5           6           7           8           9          10
 ........................................................................................................................
   1    9.996       8.434       6.918       5.500       4.239       3.173       2.267       1.466      0.7216      2.3972E-03
   2    9.996       8.387       6.816       5.337       4.039       3.009       2.159       1.405      0.6951      2.3091E-03
   3    9.995       8.301       6.618       4.991       3.566       2.658       1.950       1.296      0.6499      2.1591E-03
   4    9.995       8.202       6.361       4.436       2.561       2.100       1.684       1.177      0.6043      2.0078E-03
   5    9.995       8.150       6.181       3.811     -0.2452       1.472       1.503       1.119      0.5866      1.9495E-03
   6    9.995       8.219       6.392       4.479       2.609       2.146       1.724       1.206      0.6194      2.0583E-03
   7    9.995       8.337       6.685       5.081       3.667       2.756       2.034       1.357      0.6816      2.2646E-03
   8    9.996       8.446       6.927       5.487       4.207       3.171       2.296       1.503      0.7461      2.4785E-03
   9    9.996       8.523       7.087       5.729       4.497       3.421       2.473       1.610      0.7954      2.6421E-03
  10    9.996       8.562       7.164       5.841       4.627       3.537       2.560       1.665      0.8214      2.7287E-03
1
              HEAD IN LAYER   2 AT END OF TIME STEP  33 IN STRESS PERIOD    3
  ---------------------------------------------------------------------------

            1           2           3           4           5           6           7           8           9          10
 ........................................................................................................................
   1    9.996       8.434       6.918       5.500       4.239       3.173       2.267       1.466      0.7216      2.3972E-03
   2    9.996       8.387       6.816       5.337       4.039       3.009       2.159       1.405      0.6951      2.3091E-03
   3    9.995       8.301       6.618       4.991       3.566       2.658       1.950       1.296      0.6499      2.1591E-03
   4    9.995       8.202       6.361       4.437       2.571       2.100       1.684       1.177      0.6043      2.0078E-03
   5    9.995       8.150       6.182       3.821      0.2528       1.482       1.503       1.119      0.5866      1.9495E-03
   6    9.995       8.219       6.392       4.479       2.619       2.146       1.724       1.206      0.6194      2.0583E-03
   7    9.995       8.337       6.685       5.081       3.667       2.756       2.034       1.357      0.6816      2.2646E-03
   8    9.996       8.446       6.927       5.487       4.207       3.171       2.296       1.503      0.7461      2.4785E-03
   9    9.996       8.523       7.087       5.729       4.497       3.421       2.473       1.610      0.7954      2.6421E-03
  10    9.996       8.562       7.164       5.841       4.627       3.537       2.560       1.665      0.8214      2.7287E-03
1
              HEAD IN LAYER   3 AT END OF TIME STEP  33 IN STRESS PERIOD    3
  ---------------------------------------------------------------------------

            1           2           3           4           5           6           7           8           9          10
 ........................................................................................................................
   1    9.996       8.434       6.918       5.500       4.239       3.173       2.267       1.466      0.7216      2.3972E-03
   2    9.996       8.387       6.816       5.337       4.039       3.009       2.159       1.405      0.6951      2.3091E-03
   3    9.995       8.301       6.618       4.991       3.566       2.658       1.950       1.296      0.6499      2.1591E-03
   4    9.995       8.202       6.361       4.437       2.579       2.100       1.684       1.177      0.6043      2.0078E-03
   5    9.995       8.150       6.182       3.829      0.4909       1.490       1.504       1.119      0.5866      1.9495E-03
   6    9.995       8.219       6.392       4.480       2.627       2.147       1.724       1.206      0.6194      2.0583E-03
   7    9.995       8.337       6.685       5.081       3.667       2.756       2.034       1.357      0.6816      2.2646E-03
   8    9.996       8.446       6.927       5.487       4.207       3.171       2.296       1.503      0.7461      2.4785E-03
   9    9.996       8.523       7.087       5.729       4.497       3.421       2.473       1.610      0.7954      2.6421E-03
  10    9.996       8.562       7.164       5.841       4.627       3.537       2.560       1.665      0.8214      2.7287E-03

 HEAD WILL BE SAVED ON UNIT   51 AT END OF TIME STEP   33, STRESS PERIOD    3

 DRAWDOWN WILL BE SAVED ON UNIT   52 AT END OF TIME STEP   33, STRESS PERIOD    3
1
  VOLUMETRIC BUDGET FOR ENTIRE MODEL AT END OF TIME STEP   33, STRESS PERIOD   3
  ------------------------------------------------------------------------------

     CUMULATIVE VOLUMES      L**3       RATES FOR THIS TIME STEP      L**3/T
     ------------------                 ------------------------

           IN:                                      IN:
           ---                                      ---
             STORAGE =       30020.3105               STORAGE =          25.2465
       CONSTANT HEAD =           0.0000         CONSTANT HEAD =           0.0000
               WELLS =           0.0000                 WELLS =           0.0000
       RIVER LEAKAGE =       72966.9141         RIVER LEAKAGE =         819.6238

            TOTAL IN =      102987.2266              TOTAL IN =         844.8703

          OUT:                                     OUT:
          ----                                     ----
             STORAGE =       2.9455E-02               STORAGE =       1.5259E-05
       CONSTANT HEAD =           0.0000         CONSTANT HEAD =           0.0000
               WELLS =       16500.0000                 WELLS =         500.0000
       RIVER LEAKAGE =       86496.0078         RIVER LEAKAGE =         344.9240

           TOTAL OUT =      102996.0391             TOTAL OUT =         844.9240

            IN - OUT =          -8.8125              IN - OUT =      -5.3650E-02

 PERCENT DISCREPANCY =          -0.01     PERCENT DISCREPANCY =          -0.01






         TIME SUMMARY AT END OF TIME STEP   33 IN STRESS PERIOD    3
                    SECONDS     MINUTES      HOURS       DAYS        YEARS
                    -----------------------------------------------------------
   TIME STEP LENGTH  86400.      1440.0      24.000      1.0000     2.73785E-03
 STRESS PERIOD TIME 2.85120E+06  47520.      792.00      33.000     9.03491E-02
         TOTAL TIME 1.15776E+07 1.92960E+05  3216.0      134.00     0.36687    
1

 SOLVING FOR HEAD 

 OUTPUT CONTROL FOR STRESS PERIOD    3   TIME STEP   34
    SAVE HEAD FOR ALL LAYERS
    SAVE DRAWDOWN FOR ALL LAYERS
    SAVE BUDGET
    PRINT HEAD FOR ALL LAYERS
    PRINT BUDGET
 UBDSV1 SAVING "         STORAGE" ON UNIT  53 AT TIME STEP 34, STRESS PERIOD   3
 UBDSV2 SAVING "   CONSTANT HEAD" ON UNIT  53 AT TIME STEP 34, STRESS PERIOD   3
 UBDSV1 SAVING "FLOW RIGHT FACE " ON UNIT  53 AT TIME STEP 34, STRESS PERIOD   3
 UBDSV1 SAVING "FLOW FRONT FACE " ON UNIT  53 AT TIME STEP 34, STRESS PERIOD   3
 UBDSV1 SAVING "FLOW LOWER FACE " ON UNIT  53 AT TIME STEP 34, STRESS PERIOD   3
1
              HEAD IN LAYER   1 AT END OF TIME STEP  34 IN STRESS PERIOD    3
  ---------------------------------------------------------------------------

            1           2           3           4           5           6           7           8           9          10
 ........................................................................................................................
   1    9.996       8.432       6.915       5.495       4.234       3.169       2.263       1.463      0.7201      2.3920E-03
   2    9.996       8.385       6.813       5.333       4.034       3.004       2.155       1.402      0.6935      2.3038E-03
   3    9.995       8.299       6.615       4.986       3.560       2.652       1.946       1.293      0.6483      2.1537E-03
   4    9.995       8.200       6.357       4.431       2.555       2.094       1.679       1.173      0.6026      2.0023E-03
   5    9.995       8.148       6.178       3.805     -0.2545       1.466       1.498       1.116      0.5849      1.9438E-03
   6    9.995       8.217       6.389       4.474       2.602       2.140       1.719       1.202      0.6178      2.0528E-03
   7    9.995       8.335       6.682       5.076       3.661       2.751       2.030       1.354      0.6800      2.2593E-03
   8    9.996       8.444       6.924       5.483       4.202       3.167       2.292       1.500      0.7445      2.4734E-03
   9    9.996       8.521       7.084       5.725       4.493       3.416       2.469       1.607      0.7939      2.6372E-03
  10    9.996       8.560       7.161       5.838       4.623       3.533       2.556       1.662      0.8199      2.7238E-03
1
              HEAD IN LAYER   2 AT END OF TIME STEP  34 IN STRESS PERIOD    3
  ---------------------------------------------------------------------------

            1           2           3           4           5           6           7           8           9          10
 ........................................................................................................................
   1    9.996       8.432       6.915       5.495       4.234       3.169       2.263       1.463      0.7201      2.3920E-03
   2    9.996       8.385       6.813       5.333       4.034       3.004       2.155       1.402      0.6935      2.3038E-03
   3    9.995       8.299       6.615       4.986       3.561       2.652       1.946       1.293      0.6483      2.1537E-03
   4    9.995       8.200       6.357       4.432       2.565       2.094       1.679       1.173      0.6026      2.0023E-03
   5    9.995       8.148       6.178       3.815      0.2439       1.476       1.499       1.116      0.5849      1.9438E-03
   6    9.995       8.217       6.389       4.474       2.613       2.141       1.719       1.202      0.6178      2.0528E-03
   7    9.995       8.335       6.682       5.076       3.662       2.751       2.030       1.354      0.6800      2.2593E-03
   8    9.996       8.444       6.924       5.483       4.202       3.167       2.292       1.500      0.7445      2.4734E-03
   9    9.996       8.521       7.084       5.725       4.493       3.416       2.469       1.607      0.7939      2.6372E-03
  10    9.996       8.560       7.161       5.838       4.623       3.533       2.556       1.662      0.8199      2.7238E-03
1
              HEAD IN LAYER   3 AT END OF TIME STEP  34 IN STRESS PERIOD    3
  ---------------------------------------------------------------------------

            1           2           3           4           5           6           7           8           9          10
 ........................................................................................................................
   1    9.996       8.432       6.915       5.495       4.234       3.169       2.263       1.463      0.7201      2.3920E-03
   2    9.996       8.385       6.813       5.333       4.034       3.004       2.155       1.402      0.6935      2.3038E-03
   3    9.995       8.299       6.615       4.986       3.561       2.652       1.946       1.293      0.6483      2.1537E-03
   4    9.995       8.200       6.357       4.432       2.573       2.095       1.679       1.173      0.6026      2.0023E-03
   5    9.995       8.148       6.178       3.823      0.4822       1.484       1.499       1.116      0.5849      1.9438E-03
   6    9.995       8.217       6.389       4.474       2.620       2.141       1.719       1.202      0.6178      2.0528E-03
   7    9.995       8.335       6.682       5.076       3.662       2.751       2.030       1.354      0.6800      2.2593E-03
   8    9.996       8.444       6.924       5.483       4.202       3.167       2.292       1.500      0.7445      2.4734E-03
   9    9.996       8.521       7.084       5.725       4.493       3.416       2.469       1.607      0.7939      2.6372E-03
  10    9.996       8.560       7.161       5.838       4.623       3.533       2.556       1.662      0.8199      2.7238E-03

 HEAD WILL BE SAVED ON UNIT   51 AT END OF TIME STEP   34, STRESS PERIOD    3

 DRAWDOWN WILL BE SAVED ON UNIT   52 AT END OF TIME STEP   34, STRESS PERIOD    3
1
  VOLUMETRIC BUDGET FOR ENTIRE MODEL AT END OF TIME STEP   34, STRESS PERIOD   3
  ------------------------------------------------------------------------------

     CUMULATIVE VOLUMES      L**3       RATES FOR THIS TIME STEP      L**3/T
     ------------------                 ------------------------

           IN:                                      IN:
           ---                                      ---
             STORAGE =       30043.9219               STORAGE =          23.6105
       CONSTANT HEAD =           0.0000         CONSTANT HEAD =           0.0000
               WELLS =           0.0000                 WELLS =           0.0000
       RIVER LEAKAGE =       73787.3750         RIVER LEAKAGE =         820.4640

            TOTAL IN =      103831.2969              TOTAL IN =         844.0745

          OUT:                                     OUT:
          ----                                     ----
             STORAGE =       2.9455E-02               STORAGE =           0.0000
       CONSTANT HEAD =           0.0000         CONSTANT HEAD =           0.0000
               WELLS =       17000.0000                 WELLS =         500.0000
       RIVER LEAKAGE =       86840.1406         RIVER LEAKAGE =         344.1307

           TOTAL OUT =      103840.1719             TOTAL OUT =         844.1307

            IN - OUT =          -8.8750              IN - OUT =      -5.6213E-02

 PERCENT DISCREPANCY =          -0.01     PERCENT DISCREPANCY =          -0.01






         TIME SUMMARY AT END OF TIME STEP   34 IN STRESS PERIOD    3
                    SECONDS     MINUTES      HOURS       DAYS        YEARS
                    -----------------------------------------------------------
   TIME STEP LENGTH  86400.      1440.0      24.000      1.0000     2.73785E-03
 STRESS PERIOD TIME 2.93760E+06  48960.      816.00      34.000     9.30869E-02
         TOTAL TIME 1.16640E+07 1.94400E+05  3240.0      135.00     0.36961    
1

 SOLVING FOR HEAD 

 OUTPUT CONTROL FOR STRESS PERIOD    3   TIME STEP   35
    SAVE HEAD FOR ALL LAYERS
    SAVE DRAWDOWN FOR ALL LAYERS
    SAVE BUDGET
    PRINT HEAD FOR ALL LAYERS
    PRINT BUDGET
 UBDSV1 SAVING "         STORAGE" ON UNIT  53 AT TIME STEP 35, STRESS PERIOD   3
 UBDSV2 SAVING "   CONSTANT HEAD" ON UNIT  53 AT TIME STEP 35, STRESS PERIOD   3
 UBDSV1 SAVING "FLOW RIGHT FACE " ON UNIT  53 AT TIME STEP 35, STRESS PERIOD   3
 UBDSV1 SAVING "FLOW FRONT FACE " ON UNIT  53 AT TIME STEP 35, STRESS PERIOD   3
 UBDSV1 SAVING "FLOW LOWER FACE " ON UNIT  53 AT TIME STEP 35, STRESS PERIOD   3
1
              HEAD IN LAYER   1 AT END OF TIME STEP  35 IN STRESS PERIOD    3
  ---------------------------------------------------------------------------

            1           2           3           4           5           6           7           8           9          10
 ........................................................................................................................
   1    9.996       8.431       6.912       5.492       4.230       3.164       2.260       1.460      0.7186      2.3872E-03
   2    9.996       8.384       6.810       5.329       4.030       2.999       2.151       1.399      0.6920      2.2989E-03
   3    9.995       8.298       6.612       4.982       3.555       2.648       1.942       1.290      0.6467      2.1487E-03
   4    9.995       8.199       6.354       4.426       2.549       2.088       1.675       1.170      0.6010      1.9971E-03
   5    9.995       8.146       6.174       3.800     -0.2634       1.460       1.494       1.113      0.5833      1.9386E-03
   6    9.995       8.215       6.385       4.469       2.597       2.135       1.715       1.199      0.6162      2.0477E-03
   7    9.995       8.334       6.679       5.072       3.657       2.746       2.026       1.351      0.6786      2.2544E-03
   8    9.996       8.443       6.921       5.479       4.198       3.162       2.289       1.498      0.7431      2.4687E-03
   9    9.996       8.520       7.081       5.722       4.489       3.412       2.465       1.604      0.7925      2.6327E-03
  10    9.996       8.559       7.159       5.834       4.619       3.529       2.552       1.659      0.8186      2.7194E-03
1
              HEAD IN LAYER   2 AT END OF TIME STEP  35 IN STRESS PERIOD    3
  ---------------------------------------------------------------------------

            1           2           3           4           5           6           7           8           9          10
 ........................................................................................................................
   1    9.996       8.431       6.912       5.492       4.230       3.164       2.260       1.460      0.7186      2.3872E-03
   2    9.996       8.384       6.810       5.329       4.030       2.999       2.151       1.399      0.6920      2.2990E-03
   3    9.995       8.298       6.612       4.982       3.556       2.648       1.942       1.290      0.6467      2.1487E-03
   4    9.995       8.199       6.354       4.427       2.559       2.089       1.675       1.170      0.6010      1.9971E-03
   5    9.995       8.146       6.174       3.810      0.2355       1.470       1.494       1.113      0.5833      1.9386E-03
   6    9.995       8.215       6.385       4.469       2.607       2.135       1.715       1.199      0.6162      2.0477E-03
   7    9.995       8.334       6.679       5.072       3.657       2.746       2.026       1.351      0.6786      2.2544E-03
   8    9.996       8.443       6.921       5.479       4.198       3.162       2.289       1.498      0.7431      2.4687E-03
   9    9.996       8.520       7.081       5.722       4.489       3.412       2.465       1.604      0.7925      2.6327E-03
  10    9.996       8.559       7.159       5.834       4.619       3.529       2.552       1.659      0.8186      2.7194E-03
1
              HEAD IN LAYER   3 AT END OF TIME STEP  35 IN STRESS PERIOD    3
  ---------------------------------------------------------------------------

            1           2           3           4           5           6           7           8           9          10
 ........................................................................................................................
   1    9.996       8.431       6.912       5.492       4.230       3.164       2.260       1.460      0.7186      2.3872E-03
   2    9.996       8.384       6.810       5.329       4.030       2.999       2.151       1.399      0.6920      2.2989E-03
   3    9.995       8.298       6.612       4.982       3.556       2.648       1.942       1.290      0.6467      2.1487E-03
   4    9.995       8.199       6.354       4.427       2.567       2.089       1.675       1.170      0.6010      1.9971E-03
   5    9.995       8.146       6.175       3.817      0.4740       1.478       1.494       1.113      0.5833      1.9386E-03
   6    9.995       8.215       6.385       4.470       2.615       2.136       1.715       1.199      0.6162      2.0477E-03
   7    9.995       8.334       6.679       5.072       3.657       2.746       2.026       1.351      0.6786      2.2544E-03
   8    9.996       8.443       6.921       5.479       4.198       3.162       2.289       1.498      0.7431      2.4687E-03
   9    9.996       8.520       7.081       5.722       4.489       3.412       2.465       1.604      0.7925      2.6327E-03
  10    9.996       8.559       7.159       5.834       4.619       3.529       2.552       1.659      0.8186      2.7193E-03

 HEAD WILL BE SAVED ON UNIT   51 AT END OF TIME STEP   35, STRESS PERIOD    3

 DRAWDOWN WILL BE SAVED ON UNIT   52 AT END OF TIME STEP   35, STRESS PERIOD    3
1
  VOLUMETRIC BUDGET FOR ENTIRE MODEL AT END OF TIME STEP   35, STRESS PERIOD   3
  ------------------------------------------------------------------------------

     CUMULATIVE VOLUMES      L**3       RATES FOR THIS TIME STEP      L**3/T
     ------------------                 ------------------------

           IN:                                      IN:
           ---                                      ---
             STORAGE =       30066.0195               STORAGE =          22.0984
       CONSTANT HEAD =           0.0000         CONSTANT HEAD =           0.0000
               WELLS =           0.0000                 WELLS =           0.0000
       RIVER LEAKAGE =       74608.6172         RIVER LEAKAGE =         821.2427

            TOTAL IN =      104674.6406              TOTAL IN =         843.3411

          OUT:                                     OUT:
          ----                                     ----
             STORAGE =       2.9455E-02               STORAGE =           0.0000
       CONSTANT HEAD =           0.0000         CONSTANT HEAD =           0.0000
               WELLS =       17500.0000                 WELLS =         500.0000
       RIVER LEAKAGE =       87183.5391         RIVER LEAKAGE =         343.3995

           TOTAL OUT =      104683.5703             TOTAL OUT =         843.3995

            IN - OUT =          -8.9297              IN - OUT =      -5.8472E-02

 PERCENT DISCREPANCY =          -0.01     PERCENT DISCREPANCY =          -0.01






         TIME SUMMARY AT END OF TIME STEP   35 IN STRESS PERIOD    3
                    SECONDS     MINUTES      HOURS       DAYS        YEARS
                    -----------------------------------------------------------
   TIME STEP LENGTH  86400.      1440.0      24.000      1.0000     2.73785E-03
 STRESS PERIOD TIME 3.02400E+06  50400.      840.00      35.000     9.58248E-02
         TOTAL TIME 1.17504E+07 1.95840E+05  3264.0      136.00     0.37235    
1

 SOLVING FOR HEAD 

 OUTPUT CONTROL FOR STRESS PERIOD    3   TIME STEP   36
    SAVE HEAD FOR ALL LAYERS
    SAVE DRAWDOWN FOR ALL LAYERS
    SAVE BUDGET
    PRINT HEAD FOR ALL LAYERS
    PRINT BUDGET
 UBDSV1 SAVING "         STORAGE" ON UNIT  53 AT TIME STEP 36, STRESS PERIOD   3
 UBDSV2 SAVING "   CONSTANT HEAD" ON UNIT  53 AT TIME STEP 36, STRESS PERIOD   3
 UBDSV1 SAVING "FLOW RIGHT FACE " ON UNIT  53 AT TIME STEP 36, STRESS PERIOD   3
 UBDSV1 SAVING "FLOW FRONT FACE " ON UNIT  53 AT TIME STEP 36, STRESS PERIOD   3
 UBDSV1 SAVING "FLOW LOWER FACE " ON UNIT  53 AT TIME STEP 36, STRESS PERIOD   3
1
              HEAD IN LAYER   1 AT END OF TIME STEP  36 IN STRESS PERIOD    3
  ---------------------------------------------------------------------------

            1           2           3           4           5           6           7           8           9          10
 ........................................................................................................................
   1    9.996       8.430       6.909       5.488       4.226       3.160       2.256       1.458      0.7173      2.3828E-03
   2    9.996       8.382       6.807       5.326       4.025       2.995       2.147       1.396      0.6907      2.2944E-03
   3    9.995       8.296       6.609       4.978       3.551       2.643       1.938       1.288      0.6454      2.1440E-03
   4    9.995       8.197       6.351       4.422       2.544       2.083       1.671       1.168      0.5996      1.9923E-03
   5    9.995       8.145       6.171       3.795     -0.2718       1.454       1.490       1.110      0.5819      1.9338E-03
   6    9.995       8.214       6.382       4.464       2.591       2.130       1.711       1.197      0.6148      2.0429E-03
   7    9.995       8.332       6.676       5.068       3.652       2.742       2.023       1.349      0.6772      2.2499E-03
   8    9.996       8.442       6.919       5.476       4.194       3.158       2.285       1.495      0.7418      2.4644E-03
   9    9.996       8.519       7.079       5.718       4.485       3.409       2.462       1.602      0.7913      2.6285E-03
  10    9.996       8.558       7.157       5.831       4.615       3.525       2.549       1.657      0.8174      2.7153E-03
1
              HEAD IN LAYER   2 AT END OF TIME STEP  36 IN STRESS PERIOD    3
  ---------------------------------------------------------------------------

            1           2           3           4           5           6           7           8           9          10
 ........................................................................................................................
   1    9.996       8.430       6.909       5.488       4.226       3.160       2.256       1.458      0.7173      2.3828E-03
   2    9.996       8.382       6.807       5.326       4.025       2.995       2.147       1.396      0.6907      2.2945E-03
   3    9.995       8.296       6.609       4.978       3.551       2.643       1.938       1.288      0.6454      2.1440E-03
   4    9.995       8.197       6.351       4.422       2.554       2.084       1.671       1.168      0.5996      1.9923E-03
   5    9.995       8.145       6.171       3.804      0.2274       1.465       1.490       1.110      0.5819      1.9338E-03
   6    9.995       8.214       6.382       4.465       2.601       2.131       1.711       1.197      0.6148      2.0429E-03
   7    9.995       8.332       6.676       5.068       3.652       2.742       2.023       1.349      0.6772      2.2499E-03
   8    9.996       8.442       6.919       5.476       4.194       3.158       2.285       1.495      0.7418      2.4644E-03
   9    9.996       8.519       7.079       5.718       4.485       3.409       2.462       1.602      0.7913      2.6285E-03
  10    9.996       8.558       7.157       5.831       4.615       3.525       2.549       1.657      0.8174      2.7153E-03
1
              HEAD IN LAYER   3 AT END OF TIME STEP  36 IN STRESS PERIOD    3
  ---------------------------------------------------------------------------

            1           2           3           4           5           6           7           8           9          10
 ........................................................................................................................
   1    9.996       8.430       6.909       5.488       4.226       3.160       2.256       1.458      0.7173      2.3828E-03
   2    9.996       8.382       6.807       5.326       4.026       2.995       2.147       1.396      0.6907      2.2945E-03
   3    9.995       8.296       6.609       4.978       3.551       2.643       1.938       1.288      0.6454      2.1440E-03
   4    9.995       8.197       6.351       4.423       2.561       2.084       1.671       1.168      0.5996      1.9923E-03
   5    9.995       8.145       6.171       3.812      0.4663       1.473       1.490       1.110      0.5819      1.9338E-03
   6    9.995       8.214       6.382       4.465       2.609       2.131       1.711       1.197      0.6148      2.0429E-03
   7    9.995       8.332       6.676       5.068       3.652       2.742       2.023       1.349      0.6772      2.2499E-03
   8    9.996       8.442       6.919       5.476       4.194       3.158       2.285       1.495      0.7418      2.4644E-03
   9    9.996       8.519       7.079       5.718       4.485       3.409       2.462       1.602      0.7913      2.6285E-03
  10    9.996       8.558       7.157       5.831       4.615       3.525       2.549       1.657      0.8174      2.7153E-03

 HEAD WILL BE SAVED ON UNIT   51 AT END OF TIME STEP   36, STRESS PERIOD    3

 DRAWDOWN WILL BE SAVED ON UNIT   52 AT END OF TIME STEP   36, STRESS PERIOD    3
1
  VOLUMETRIC BUDGET FOR ENTIRE MODEL AT END OF TIME STEP   36, STRESS PERIOD   3
  ------------------------------------------------------------------------------

     CUMULATIVE VOLUMES      L**3       RATES FOR THIS TIME STEP      L**3/T
     ------------------                 ------------------------

           IN:                                      IN:
           ---                                      ---
             STORAGE =       30086.7168               STORAGE =          20.6980
       CONSTANT HEAD =           0.0000         CONSTANT HEAD =           0.0000
               WELLS =           0.0000                 WELLS =           0.0000
       RIVER LEAKAGE =       75430.5859         RIVER LEAKAGE =         821.9657

            TOTAL IN =      105517.3047              TOTAL IN =         842.6637

          OUT:                                     OUT:
          ----                                     ----
             STORAGE =       2.9455E-02               STORAGE =           0.0000
       CONSTANT HEAD =           0.0000         CONSTANT HEAD =           0.0000
               WELLS =       18000.0000                 WELLS =         500.0000
       RIVER LEAKAGE =       87526.2656         RIVER LEAKAGE =         342.7242

           TOTAL OUT =      105526.2969             TOTAL OUT =         842.7242

            IN - OUT =          -8.9922              IN - OUT =      -6.0547E-02

 PERCENT DISCREPANCY =          -0.01     PERCENT DISCREPANCY =          -0.01






         TIME SUMMARY AT END OF TIME STEP   36 IN STRESS PERIOD    3
                    SECONDS     MINUTES      HOURS       DAYS        YEARS
                    -----------------------------------------------------------
   TIME STEP LENGTH  86400.      1440.0      24.000      1.0000     2.73785E-03
 STRESS PERIOD TIME 3.11040E+06  51840.      864.00      36.000     9.85626E-02
         TOTAL TIME 1.18368E+07 1.97280E+05  3288.0      137.00     0.37509    
1

 SOLVING FOR HEAD 

 OUTPUT CONTROL FOR STRESS PERIOD    3   TIME STEP   37
    SAVE HEAD FOR ALL LAYERS
    SAVE DRAWDOWN FOR ALL LAYERS
    SAVE BUDGET
    PRINT HEAD FOR ALL LAYERS
    PRINT BUDGET
 UBDSV1 SAVING "         STORAGE" ON UNIT  53 AT TIME STEP 37, STRESS PERIOD   3
 UBDSV2 SAVING "   CONSTANT HEAD" ON UNIT  53 AT TIME STEP 37, STRESS PERIOD   3
 UBDSV1 SAVING "FLOW RIGHT FACE " ON UNIT  53 AT TIME STEP 37, STRESS PERIOD   3
 UBDSV1 SAVING "FLOW FRONT FACE " ON UNIT  53 AT TIME STEP 37, STRESS PERIOD   3
 UBDSV1 SAVING "FLOW LOWER FACE " ON UNIT  53 AT TIME STEP 37, STRESS PERIOD   3
1
              HEAD IN LAYER   1 AT END OF TIME STEP  37 IN STRESS PERIOD    3
  ---------------------------------------------------------------------------

            1           2           3           4           5           6           7           8           9          10
 ........................................................................................................................
   1    9.996       8.428       6.907       5.485       4.222       3.157       2.253       1.455      0.7161      2.3787E-03
   2    9.996       8.381       6.805       5.322       4.022       2.991       2.144       1.394      0.6894      2.2903E-03
   3    9.995       8.295       6.606       4.974       3.546       2.639       1.935       1.285      0.6441      2.1397E-03
   4    9.995       8.196       6.348       4.418       2.538       2.079       1.667       1.165      0.5982      1.9879E-03
   5    9.995       8.143       6.168       3.790     -0.2797       1.449       1.486       1.107      0.5805      1.9292E-03
   6    9.995       8.212       6.379       4.460       2.586       2.125       1.707       1.194      0.6135      2.0385E-03
   7    9.995       8.331       6.673       5.064       3.648       2.738       2.019       1.346      0.6759      2.2457E-03
   8    9.996       8.440       6.916       5.472       4.190       3.155       2.282       1.493      0.7406      2.4604E-03
   9    9.996       8.518       7.076       5.715       4.481       3.405       2.459       1.600      0.7901      2.6247E-03
  10    9.996       8.556       7.154       5.828       4.612       3.522       2.546       1.655      0.8163      2.7115E-03
1
              HEAD IN LAYER   2 AT END OF TIME STEP  37 IN STRESS PERIOD    3
  ---------------------------------------------------------------------------

            1           2           3           4           5           6           7           8           9          10
 ........................................................................................................................
   1    9.996       8.428       6.907       5.485       4.222       3.157       2.253       1.455      0.7161      2.3787E-03
   2    9.996       8.381       6.805       5.322       4.022       2.991       2.144       1.394      0.6894      2.2903E-03
   3    9.995       8.295       6.606       4.974       3.547       2.639       1.935       1.285      0.6441      2.1397E-03
   4    9.995       8.196       6.348       4.418       2.548       2.079       1.667       1.165      0.5982      1.9879E-03
   5    9.995       8.143       6.168       3.800      0.2199       1.459       1.486       1.107      0.5805      1.9293E-03
   6    9.995       8.212       6.379       4.461       2.596       2.126       1.707       1.194      0.6135      2.0385E-03
   7    9.995       8.331       6.673       5.064       3.648       2.738       2.019       1.346      0.6759      2.2457E-03
   8    9.996       8.440       6.916       5.472       4.190       3.155       2.282       1.493      0.7406      2.4604E-03
   9    9.996       8.518       7.076       5.715       4.481       3.405       2.459       1.600      0.7901      2.6247E-03
  10    9.996       8.556       7.154       5.828       4.612       3.522       2.546       1.655      0.8163      2.7115E-03
1
              HEAD IN LAYER   3 AT END OF TIME STEP  37 IN STRESS PERIOD    3
  ---------------------------------------------------------------------------

            1           2           3           4           5           6           7           8           9          10
 ........................................................................................................................
   1    9.996       8.428       6.907       5.485       4.222       3.157       2.253       1.455      0.7161      2.3787E-03
   2    9.996       8.381       6.805       5.322       4.022       2.991       2.144       1.394      0.6894      2.2903E-03
   3    9.995       8.295       6.606       4.974       3.547       2.639       1.935       1.285      0.6441      2.1397E-03
   4    9.995       8.196       6.348       4.419       2.556       2.080       1.667       1.165      0.5982      1.9878E-03
   5    9.995       8.143       6.168       3.808      0.4589       1.467       1.486       1.107      0.5805      1.9292E-03
   6    9.995       8.212       6.379       4.461       2.604       2.126       1.707       1.194      0.6135      2.0385E-03
   7    9.995       8.331       6.673       5.064       3.648       2.738       2.019       1.346      0.6759      2.2457E-03
   8    9.996       8.440       6.916       5.472       4.190       3.155       2.282       1.493      0.7406      2.4604E-03
   9    9.996       8.518       7.076       5.715       4.481       3.405       2.459       1.600      0.7901      2.6247E-03
  10    9.996       8.556       7.154       5.828       4.612       3.522       2.546       1.655      0.8163      2.7115E-03

 HEAD WILL BE SAVED ON UNIT   51 AT END OF TIME STEP   37, STRESS PERIOD    3

 DRAWDOWN WILL BE SAVED ON UNIT   52 AT END OF TIME STEP   37, STRESS PERIOD    3
1
  VOLUMETRIC BUDGET FOR ENTIRE MODEL AT END OF TIME STEP   37, STRESS PERIOD   3
  ------------------------------------------------------------------------------

     CUMULATIVE VOLUMES      L**3       RATES FOR THIS TIME STEP      L**3/T
     ------------------                 ------------------------

           IN:                                      IN:
           ---                                      ---
             STORAGE =       30106.1152               STORAGE =          19.3987
       CONSTANT HEAD =           0.0000         CONSTANT HEAD =           0.0000
               WELLS =           0.0000                 WELLS =           0.0000
       RIVER LEAKAGE =       76253.2266         RIVER LEAKAGE =         822.6379

            TOTAL IN =      106359.3438              TOTAL IN =         842.0366

          OUT:                                     OUT:
          ----                                     ----
             STORAGE =       2.9501E-02               STORAGE =       4.5776E-05
       CONSTANT HEAD =           0.0000         CONSTANT HEAD =           0.0000
               WELLS =       18500.0000                 WELLS =         500.0000
       RIVER LEAKAGE =       87868.3672         RIVER LEAKAGE =         342.0993

           TOTAL OUT =      106368.3984             TOTAL OUT =         842.0994

            IN - OUT =          -9.0547              IN - OUT =      -6.2744E-02

 PERCENT DISCREPANCY =          -0.01     PERCENT DISCREPANCY =          -0.01






         TIME SUMMARY AT END OF TIME STEP   37 IN STRESS PERIOD    3
                    SECONDS     MINUTES      HOURS       DAYS        YEARS
                    -----------------------------------------------------------
   TIME STEP LENGTH  86400.      1440.0      24.000      1.0000     2.73785E-03
 STRESS PERIOD TIME 3.19680E+06  53280.      888.00      37.000     0.10130    
         TOTAL TIME 1.19232E+07 1.98720E+05  3312.0      138.00     0.37782    
1

 SOLVING FOR HEAD 

 OUTPUT CONTROL FOR STRESS PERIOD    3   TIME STEP   38
    SAVE HEAD FOR ALL LAYERS
    SAVE DRAWDOWN FOR ALL LAYERS
    SAVE BUDGET
    PRINT HEAD FOR ALL LAYERS
    PRINT BUDGET
 UBDSV1 SAVING "         STORAGE" ON UNIT  53 AT TIME STEP 38, STRESS PERIOD   3
 UBDSV2 SAVING "   CONSTANT HEAD" ON UNIT  53 AT TIME STEP 38, STRESS PERIOD   3
 UBDSV1 SAVING "FLOW RIGHT FACE " ON UNIT  53 AT TIME STEP 38, STRESS PERIOD   3
 UBDSV1 SAVING "FLOW FRONT FACE " ON UNIT  53 AT TIME STEP 38, STRESS PERIOD   3
 UBDSV1 SAVING "FLOW LOWER FACE " ON UNIT  53 AT TIME STEP 38, STRESS PERIOD   3
1
              HEAD IN LAYER   1 AT END OF TIME STEP  38 IN STRESS PERIOD    3
  ---------------------------------------------------------------------------

            1           2           3           4           5           6           7           8           9          10
 ........................................................................................................................
   1    9.996       8.427       6.904       5.482       4.219       3.153       2.250       1.453      0.7149      2.3749E-03
   2    9.996       8.380       6.802       5.319       4.018       2.988       2.141       1.392      0.6883      2.2864E-03
   3    9.995       8.294       6.603       4.971       3.542       2.635       1.932       1.283      0.6428      2.1357E-03
   4    9.995       8.194       6.345       4.414       2.533       2.074       1.664       1.163      0.5970      1.9837E-03
   5    9.995       8.142       6.165       3.785     -0.2873       1.444       1.482       1.105      0.5793      1.9251E-03
   6    9.995       8.211       6.377       4.456       2.581       2.121       1.704       1.192      0.6123      2.0344E-03
   7    9.995       8.329       6.671       5.061       3.644       2.734       2.016       1.344      0.6748      2.2418E-03
   8    9.996       8.439       6.914       5.469       4.187       3.151       2.279       1.491      0.7395      2.4567E-03
   9    9.996       8.516       7.074       5.713       4.478       3.402       2.456       1.598      0.7890      2.6212E-03
  10    9.996       8.555       7.152       5.825       4.609       3.519       2.544       1.653      0.8152      2.7081E-03
1
              HEAD IN LAYER   2 AT END OF TIME STEP  38 IN STRESS PERIOD    3
  ---------------------------------------------------------------------------

            1           2           3           4           5           6           7           8           9          10
 ........................................................................................................................
   1    9.996       8.427       6.904       5.482       4.219       3.153       2.250       1.453      0.7149      2.3749E-03
   2    9.996       8.380       6.802       5.319       4.018       2.988       2.141       1.392      0.6883      2.2864E-03
   3    9.995       8.294       6.603       4.971       3.543       2.635       1.932       1.283      0.6428      2.1357E-03
   4    9.995       8.194       6.345       4.414       2.543       2.075       1.664       1.163      0.5970      1.9837E-03
   5    9.995       8.142       6.165       3.795      0.2127       1.454       1.482       1.105      0.5793      1.9251E-03
   6    9.995       8.211       6.377       4.457       2.591       2.122       1.704       1.192      0.6123      2.0344E-03
   7    9.995       8.329       6.671       5.061       3.644       2.734       2.016       1.344      0.6748      2.2418E-03
   8    9.996       8.439       6.914       5.469       4.187       3.151       2.279       1.491      0.7395      2.4567E-03
   9    9.996       8.516       7.074       5.713       4.478       3.402       2.456       1.598      0.7890      2.6212E-03
  10    9.996       8.555       7.152       5.825       4.609       3.519       2.544       1.653      0.8152      2.7081E-03
1
              HEAD IN LAYER   3 AT END OF TIME STEP  38 IN STRESS PERIOD    3
  ---------------------------------------------------------------------------

            1           2           3           4           5           6           7           8           9          10
 ........................................................................................................................
   1    9.996       8.427       6.904       5.482       4.219       3.153       2.250       1.453      0.7149      2.3749E-03
   2    9.996       8.380       6.802       5.319       4.018       2.988       2.141       1.392      0.6883      2.2864E-03
   3    9.995       8.294       6.603       4.971       3.543       2.635       1.932       1.283      0.6428      2.1357E-03
   4    9.995       8.194       6.345       4.415       2.551       2.075       1.664       1.163      0.5970      1.9837E-03
   5    9.995       8.142       6.165       3.803      0.4520       1.462       1.483       1.105      0.5793      1.9251E-03
   6    9.995       8.211       6.377       4.457       2.599       2.122       1.704       1.192      0.6123      2.0344E-03
   7    9.995       8.329       6.671       5.061       3.644       2.734       2.016       1.344      0.6748      2.2418E-03
   8    9.996       8.439       6.914       5.469       4.187       3.151       2.279       1.491      0.7395      2.4567E-03
   9    9.996       8.516       7.074       5.713       4.478       3.402       2.456       1.598      0.7890      2.6211E-03
  10    9.996       8.555       7.152       5.825       4.609       3.519       2.544       1.653      0.8152      2.7081E-03

 HEAD WILL BE SAVED ON UNIT   51 AT END OF TIME STEP   38, STRESS PERIOD    3

 DRAWDOWN WILL BE SAVED ON UNIT   52 AT END OF TIME STEP   38, STRESS PERIOD    3
1
  VOLUMETRIC BUDGET FOR ENTIRE MODEL AT END OF TIME STEP   38, STRESS PERIOD   3
  ------------------------------------------------------------------------------

     CUMULATIVE VOLUMES      L**3       RATES FOR THIS TIME STEP      L**3/T
     ------------------                 ------------------------

           IN:                                      IN:
           ---                                      ---
             STORAGE =       30124.3066               STORAGE =          18.1916
       CONSTANT HEAD =           0.0000         CONSTANT HEAD =           0.0000
               WELLS =           0.0000                 WELLS =           0.0000
       RIVER LEAKAGE =       77076.4922         RIVER LEAKAGE =         823.2677

            TOTAL IN =      107200.7969              TOTAL IN =         841.4593

          OUT:                                     OUT:
          ----                                     ----
             STORAGE =       2.9516E-02               STORAGE =       1.5259E-05
       CONSTANT HEAD =           0.0000         CONSTANT HEAD =           0.0000
               WELLS =       19000.0000                 WELLS =         500.0000
       RIVER LEAKAGE =       88209.8906         RIVER LEAKAGE =         341.5197

           TOTAL OUT =      107209.9219             TOTAL OUT =         841.5197

            IN - OUT =          -9.1250              IN - OUT =      -6.0425E-02

 PERCENT DISCREPANCY =          -0.01     PERCENT DISCREPANCY =          -0.01






         TIME SUMMARY AT END OF TIME STEP   38 IN STRESS PERIOD    3
                    SECONDS     MINUTES      HOURS       DAYS        YEARS
                    -----------------------------------------------------------
   TIME STEP LENGTH  86400.      1440.0      24.000      1.0000     2.73785E-03
 STRESS PERIOD TIME 3.28320E+06  54720.      912.00      38.000     0.10404    
         TOTAL TIME 1.20096E+07 2.00160E+05  3336.0      139.00     0.38056    
1

 SOLVING FOR HEAD 

 OUTPUT CONTROL FOR STRESS PERIOD    3   TIME STEP   39
    SAVE HEAD FOR ALL LAYERS
    SAVE DRAWDOWN FOR ALL LAYERS
    SAVE BUDGET
    PRINT HEAD FOR ALL LAYERS
    PRINT BUDGET
 UBDSV1 SAVING "         STORAGE" ON UNIT  53 AT TIME STEP 39, STRESS PERIOD   3
 UBDSV2 SAVING "   CONSTANT HEAD" ON UNIT  53 AT TIME STEP 39, STRESS PERIOD   3
 UBDSV1 SAVING "FLOW RIGHT FACE " ON UNIT  53 AT TIME STEP 39, STRESS PERIOD   3
 UBDSV1 SAVING "FLOW FRONT FACE " ON UNIT  53 AT TIME STEP 39, STRESS PERIOD   3
 UBDSV1 SAVING "FLOW LOWER FACE " ON UNIT  53 AT TIME STEP 39, STRESS PERIOD   3
1
              HEAD IN LAYER   1 AT END OF TIME STEP  39 IN STRESS PERIOD    3
  ---------------------------------------------------------------------------

            1           2           3           4           5           6           7           8           9          10
 ........................................................................................................................
   1    9.996       8.426       6.902       5.479       4.216       3.150       2.247       1.451      0.7139      2.3714E-03
   2    9.996       8.379       6.800       5.316       4.015       2.984       2.138       1.390      0.6872      2.2828E-03
   3    9.995       8.292       6.601       4.967       3.539       2.632       1.928       1.281      0.6417      2.1320E-03
   4    9.995       8.193       6.342       4.410       2.529       2.070       1.660       1.160      0.5958      1.9798E-03
   5    9.995       8.140       6.162       3.781     -0.2944       1.440       1.479       1.102      0.5781      1.9211E-03
   6    9.995       8.210       6.374       4.452       2.576       2.117       1.701       1.190      0.6111      2.0306E-03
   7    9.995       8.328       6.669       5.058       3.640       2.731       2.013       1.342      0.6737      2.2382E-03
   8    9.996       8.438       6.912       5.466       4.183       3.148       2.277       1.489      0.7385      2.4533E-03
   9    9.996       8.515       7.072       5.710       4.475       3.399       2.454       1.596      0.7881      2.6179E-03
  10    9.996       8.554       7.150       5.823       4.606       3.516       2.541       1.651      0.8143      2.7049E-03
1
              HEAD IN LAYER   2 AT END OF TIME STEP  39 IN STRESS PERIOD    3
  ---------------------------------------------------------------------------

            1           2           3           4           5           6           7           8           9          10
 ........................................................................................................................
   1    9.996       8.426       6.902       5.479       4.216       3.150       2.247       1.451      0.7139      2.3714E-03
   2    9.996       8.379       6.800       5.316       4.015       2.984       2.138       1.390      0.6872      2.2828E-03
   3    9.995       8.292       6.601       4.967       3.539       2.632       1.928       1.281      0.6417      2.1320E-03
   4    9.995       8.193       6.342       4.410       2.539       2.071       1.660       1.160      0.5958      1.9798E-03
   5    9.995       8.140       6.162       3.791      0.2059       1.450       1.479       1.102      0.5781      1.9211E-03
   6    9.995       8.210       6.374       4.453       2.586       2.118       1.701       1.190      0.6111      2.0306E-03
   7    9.995       8.328       6.669       5.058       3.640       2.731       2.013       1.342      0.6737      2.2382E-03
   8    9.996       8.438       6.912       5.466       4.183       3.148       2.277       1.489      0.7385      2.4533E-03
   9    9.996       8.515       7.072       5.710       4.475       3.399       2.454       1.596      0.7881      2.6179E-03
  10    9.996       8.554       7.150       5.823       4.606       3.516       2.541       1.651      0.8143      2.7049E-03
1
              HEAD IN LAYER   3 AT END OF TIME STEP  39 IN STRESS PERIOD    3
  ---------------------------------------------------------------------------

            1           2           3           4           5           6           7           8           9          10
 ........................................................................................................................
   1    9.996       8.426       6.902       5.479       4.216       3.150       2.247       1.451      0.7139      2.3714E-03
   2    9.996       8.379       6.800       5.316       4.015       2.984       2.138       1.390      0.6872      2.2828E-03
   3    9.995       8.292       6.601       4.967       3.539       2.632       1.928       1.281      0.6417      2.1320E-03
   4    9.995       8.193       6.342       4.411       2.547       2.071       1.660       1.160      0.5958      1.9798E-03
   5    9.995       8.140       6.163       3.799      0.4454       1.458       1.479       1.102      0.5781      1.9211E-03
   6    9.995       8.210       6.374       4.453       2.594       2.118       1.701       1.190      0.6111      2.0306E-03
   7    9.995       8.328       6.669       5.058       3.641       2.731       2.013       1.342      0.6737      2.2382E-03
   8    9.996       8.438       6.912       5.466       4.183       3.148       2.277       1.489      0.7385      2.4533E-03
   9    9.996       8.515       7.072       5.710       4.475       3.399       2.454       1.596      0.7881      2.6179E-03
  10    9.996       8.554       7.150       5.823       4.606       3.516       2.541       1.651      0.8143      2.7049E-03

 HEAD WILL BE SAVED ON UNIT   51 AT END OF TIME STEP   39, STRESS PERIOD    3

 DRAWDOWN WILL BE SAVED ON UNIT   52 AT END OF TIME STEP   39, STRESS PERIOD    3
1
  VOLUMETRIC BUDGET FOR ENTIRE MODEL AT END OF TIME STEP   39, STRESS PERIOD   3
  ------------------------------------------------------------------------------

     CUMULATIVE VOLUMES      L**3       RATES FOR THIS TIME STEP      L**3/T
     ------------------                 ------------------------

           IN:                                      IN:
           ---                                      ---
             STORAGE =       30141.3750               STORAGE =          17.0684
       CONSTANT HEAD =           0.0000         CONSTANT HEAD =           0.0000
               WELLS =           0.0000                 WELLS =           0.0000
       RIVER LEAKAGE =       77900.3438         RIVER LEAKAGE =         823.8550

            TOTAL IN =      108041.7188              TOTAL IN =         840.9233

          OUT:                                     OUT:
          ----                                     ----
             STORAGE =       2.9516E-02               STORAGE =           0.0000
       CONSTANT HEAD =           0.0000         CONSTANT HEAD =           0.0000
               WELLS =       19500.0000                 WELLS =         500.0000
       RIVER LEAKAGE =       88550.8750         RIVER LEAKAGE =         340.9815

           TOTAL OUT =      108050.9062             TOTAL OUT =         840.9816

            IN - OUT =          -9.1875              IN - OUT =      -5.8228E-02

 PERCENT DISCREPANCY =          -0.01     PERCENT DISCREPANCY =          -0.01






         TIME SUMMARY AT END OF TIME STEP   39 IN STRESS PERIOD    3
                    SECONDS     MINUTES      HOURS       DAYS        YEARS
                    -----------------------------------------------------------
   TIME STEP LENGTH  86400.      1440.0      24.000      1.0000     2.73785E-03
 STRESS PERIOD TIME 3.36960E+06  56160.      936.00      39.000     0.10678    
         TOTAL TIME 1.20960E+07 2.01600E+05  3360.0      140.00     0.38330    
1

 SOLVING FOR HEAD 

 OUTPUT CONTROL FOR STRESS PERIOD    3   TIME STEP   40
    SAVE HEAD FOR ALL LAYERS
    SAVE DRAWDOWN FOR ALL LAYERS
    SAVE BUDGET
    PRINT HEAD FOR ALL LAYERS
    PRINT BUDGET
 UBDSV1 SAVING "         STORAGE" ON UNIT  53 AT TIME STEP 40, STRESS PERIOD   3
 UBDSV2 SAVING "   CONSTANT HEAD" ON UNIT  53 AT TIME STEP 40, STRESS PERIOD   3
 UBDSV1 SAVING "FLOW RIGHT FACE " ON UNIT  53 AT TIME STEP 40, STRESS PERIOD   3
 UBDSV1 SAVING "FLOW FRONT FACE " ON UNIT  53 AT TIME STEP 40, STRESS PERIOD   3
 UBDSV1 SAVING "FLOW LOWER FACE " ON UNIT  53 AT TIME STEP 40, STRESS PERIOD   3
1
              HEAD IN LAYER   1 AT END OF TIME STEP  40 IN STRESS PERIOD    3
  ---------------------------------------------------------------------------

            1           2           3           4           5           6           7           8           9          10
 ........................................................................................................................
   1    9.996       8.425       6.900       5.476       4.213       3.147       2.245       1.449      0.7129      2.3682E-03
   2    9.996       8.378       6.798       5.313       4.011       2.981       2.136       1.388      0.6862      2.2795E-03
   3    9.995       8.291       6.599       4.964       3.535       2.628       1.926       1.279      0.6407      2.1285E-03
   4    9.995       8.192       6.340       4.406       2.524       2.066       1.657       1.158      0.5947      1.9762E-03
   5    9.995       8.139       6.160       3.777     -0.3011       1.435       1.476       1.100      0.5770      1.9175E-03
   6    9.995       8.209       6.372       4.449       2.572       2.113       1.698       1.187      0.6100      2.0271E-03
   7    9.995       8.327       6.666       5.055       3.637       2.727       2.010       1.340      0.6727      2.2348E-03
   8    9.996       8.437       6.910       5.464       4.180       3.145       2.274       1.487      0.7375      2.4501E-03
   9    9.996       8.514       7.071       5.708       4.473       3.396       2.452       1.594      0.7872      2.6149E-03
  10    9.996       8.553       7.149       5.821       4.603       3.514       2.539       1.649      0.8134      2.7020E-03
1
              HEAD IN LAYER   2 AT END OF TIME STEP  40 IN STRESS PERIOD    3
  ---------------------------------------------------------------------------

            1           2           3           4           5           6           7           8           9          10
 ........................................................................................................................
   1    9.996       8.425       6.900       5.476       4.213       3.147       2.245       1.449      0.7129      2.3682E-03
   2    9.996       8.378       6.798       5.313       4.011       2.981       2.136       1.388      0.6862      2.2795E-03
   3    9.995       8.291       6.599       4.964       3.535       2.628       1.926       1.279      0.6407      2.1285E-03
   4    9.995       8.192       6.340       4.407       2.534       2.067       1.657       1.158      0.5947      1.9762E-03
   5    9.995       8.139       6.160       3.787      0.1995       1.445       1.476       1.100      0.5770      1.9175E-03
   6    9.995       8.209       6.372       4.449       2.582       2.114       1.698       1.187      0.6100      2.0271E-03
   7    9.995       8.327       6.666       5.055       3.637       2.727       2.010       1.340      0.6727      2.2348E-03
   8    9.996       8.437       6.910       5.464       4.180       3.145       2.274       1.487      0.7375      2.4501E-03
   9    9.996       8.514       7.071       5.708       4.473       3.396       2.452       1.594      0.7872      2.6149E-03
  10    9.996       8.553       7.149       5.821       4.603       3.514       2.539       1.649      0.8134      2.7020E-03
1
              HEAD IN LAYER   3 AT END OF TIME STEP  40 IN STRESS PERIOD    3
  ---------------------------------------------------------------------------

            1           2           3           4           5           6           7           8           9          10
 ........................................................................................................................
   1    9.996       8.425       6.900       5.476       4.213       3.147       2.245       1.449      0.7129      2.3682E-03
   2    9.996       8.378       6.798       5.313       4.011       2.981       2.136       1.388      0.6862      2.2795E-03
   3    9.995       8.291       6.599       4.964       3.536       2.628       1.926       1.279      0.6407      2.1285E-03
   4    9.995       8.192       6.340       4.407       2.542       2.067       1.657       1.158      0.5947      1.9762E-03
   5    9.995       8.139       6.160       3.795      0.4392       1.453       1.476       1.100      0.5770      1.9175E-03
   6    9.995       8.209       6.372       4.450       2.590       2.114       1.698       1.187      0.6100      2.0271E-03
   7    9.995       8.327       6.666       5.055       3.637       2.727       2.010       1.340      0.6727      2.2348E-03
   8    9.996       8.437       6.910       5.464       4.180       3.145       2.274       1.487      0.7375      2.4501E-03
   9    9.996       8.514       7.071       5.708       4.473       3.396       2.452       1.594      0.7872      2.6149E-03
  10    9.996       8.553       7.149       5.821       4.603       3.514       2.539       1.649      0.8134      2.7020E-03

 HEAD WILL BE SAVED ON UNIT   51 AT END OF TIME STEP   40, STRESS PERIOD    3

 DRAWDOWN WILL BE SAVED ON UNIT   52 AT END OF TIME STEP   40, STRESS PERIOD    3
1
  VOLUMETRIC BUDGET FOR ENTIRE MODEL AT END OF TIME STEP   40, STRESS PERIOD   3
  ------------------------------------------------------------------------------

     CUMULATIVE VOLUMES      L**3       RATES FOR THIS TIME STEP      L**3/T
     ------------------                 ------------------------

           IN:                                      IN:
           ---                                      ---
             STORAGE =       30157.3965               STORAGE =          16.0215
       CONSTANT HEAD =           0.0000         CONSTANT HEAD =           0.0000
               WELLS =           0.0000                 WELLS =           0.0000
       RIVER LEAKAGE =       78724.7500         RIVER LEAKAGE =         824.4073

            TOTAL IN =      108882.1484              TOTAL IN =         840.4288

          OUT:                                     OUT:
          ----                                     ----
             STORAGE =       2.9535E-02               STORAGE =       1.9640E-05
       CONSTANT HEAD =           0.0000         CONSTANT HEAD =           0.0000
               WELLS =       20000.0000                 WELLS =         500.0000
       RIVER LEAKAGE =       88891.3594         RIVER LEAKAGE =         340.4811

           TOTAL OUT =      108891.3906             TOTAL OUT =         840.4811

            IN - OUT =          -9.2422              IN - OUT =      -5.2246E-02

 PERCENT DISCREPANCY =          -0.01     PERCENT DISCREPANCY =          -0.01






         TIME SUMMARY AT END OF TIME STEP   40 IN STRESS PERIOD    3
                    SECONDS     MINUTES      HOURS       DAYS        YEARS
                    -----------------------------------------------------------
   TIME STEP LENGTH  86400.      1440.0      24.000      1.0000     2.73785E-03
 STRESS PERIOD TIME 3.45600E+06  57600.      960.00      40.000     0.10951    
         TOTAL TIME 1.21824E+07 2.03040E+05  3384.0      141.00     0.38604    
1

 SOLVING FOR HEAD 

 OUTPUT CONTROL FOR STRESS PERIOD    3   TIME STEP   41
    SAVE HEAD FOR ALL LAYERS
    SAVE DRAWDOWN FOR ALL LAYERS
    SAVE BUDGET
    PRINT HEAD FOR ALL LAYERS
    PRINT BUDGET
 UBDSV1 SAVING "         STORAGE" ON UNIT  53 AT TIME STEP 41, STRESS PERIOD   3
 UBDSV2 SAVING "   CONSTANT HEAD" ON UNIT  53 AT TIME STEP 41, STRESS PERIOD   3
 UBDSV1 SAVING "FLOW RIGHT FACE " ON UNIT  53 AT TIME STEP 41, STRESS PERIOD   3
 UBDSV1 SAVING "FLOW FRONT FACE " ON UNIT  53 AT TIME STEP 41, STRESS PERIOD   3
 UBDSV1 SAVING "FLOW LOWER FACE " ON UNIT  53 AT TIME STEP 41, STRESS PERIOD   3
1
              HEAD IN LAYER   1 AT END OF TIME STEP  41 IN STRESS PERIOD    3
  ---------------------------------------------------------------------------

            1           2           3           4           5           6           7           8           9          10
 ........................................................................................................................
   1    9.996       8.424       6.899       5.474       4.210       3.145       2.243       1.447      0.7120      2.3651E-03
   2    9.996       8.377       6.796       5.311       4.009       2.979       2.133       1.386      0.6853      2.2764E-03
   3    9.995       8.290       6.597       4.961       3.532       2.625       1.923       1.277      0.6397      2.1253E-03
   4    9.995       8.190       6.338       4.403       2.520       2.063       1.655       1.156      0.5937      1.9729E-03
   5    9.995       8.138       6.157       3.773     -0.3075       1.431       1.473       1.098      0.5760      1.9141E-03
   6    9.995       8.207       6.369       4.446       2.568       2.110       1.695       1.185      0.6090      2.0237E-03
   7    9.995       8.326       6.664       5.052       3.633       2.724       2.008       1.338      0.6717      2.2317E-03
   8    9.996       8.436       6.908       5.461       4.178       3.143       2.272       1.485      0.7366      2.4472E-03
   9    9.996       8.514       7.069       5.705       4.470       3.394       2.449       1.593      0.7863      2.6121E-03
  10    9.996       8.553       7.147       5.818       4.601       3.511       2.537       1.648      0.8126      2.6993E-03
1
              HEAD IN LAYER   2 AT END OF TIME STEP  41 IN STRESS PERIOD    3
  ---------------------------------------------------------------------------

            1           2           3           4           5           6           7           8           9          10
 ........................................................................................................................
   1    9.996       8.424       6.899       5.474       4.210       3.145       2.243       1.447      0.7120      2.3651E-03
   2    9.996       8.377       6.796       5.311       4.009       2.979       2.133       1.386      0.6853      2.2764E-03
   3    9.995       8.290       6.597       4.962       3.532       2.625       1.923       1.277      0.6397      2.1253E-03
   4    9.995       8.190       6.338       4.404       2.530       2.063       1.655       1.156      0.5937      1.9729E-03
   5    9.995       8.138       6.157       3.783      0.1934       1.441       1.473       1.098      0.5760      1.9141E-03
   6    9.995       8.207       6.369       4.446       2.578       2.110       1.695       1.185      0.6090      2.0238E-03
   7    9.995       8.326       6.664       5.052       3.634       2.724       2.008       1.338      0.6717      2.2317E-03
   8    9.996       8.436       6.908       5.461       4.178       3.143       2.272       1.485      0.7366      2.4472E-03
   9    9.996       8.514       7.069       5.705       4.470       3.394       2.449       1.593      0.7863      2.6121E-03
  10    9.996       8.553       7.147       5.818       4.601       3.511       2.537       1.648      0.8126      2.6993E-03
1
              HEAD IN LAYER   3 AT END OF TIME STEP  41 IN STRESS PERIOD    3
  ---------------------------------------------------------------------------

            1           2           3           4           5           6           7           8           9          10
 ........................................................................................................................
   1    9.996       8.424       6.899       5.474       4.210       3.145       2.243       1.447      0.7120      2.3651E-03
   2    9.996       8.377       6.796       5.311       4.009       2.979       2.133       1.386      0.6853      2.2764E-03
   3    9.995       8.290       6.597       4.962       3.532       2.625       1.923       1.277      0.6397      2.1253E-03
   4    9.995       8.190       6.338       4.404       2.538       2.064       1.655       1.156      0.5937      1.9729E-03
   5    9.995       8.138       6.158       3.791      0.4333       1.449       1.473       1.098      0.5760      1.9141E-03
   6    9.995       8.207       6.369       4.447       2.586       2.111       1.695       1.185      0.6090      2.0237E-03
   7    9.995       8.326       6.664       5.052       3.634       2.724       2.008       1.338      0.6717      2.2317E-03
   8    9.996       8.436       6.908       5.461       4.178       3.143       2.272       1.485      0.7366      2.4471E-03
   9    9.996       8.514       7.069       5.705       4.470       3.394       2.449       1.593      0.7863      2.6121E-03
  10    9.996       8.553       7.147       5.818       4.601       3.511       2.537       1.648      0.8126      2.6993E-03

 HEAD WILL BE SAVED ON UNIT   51 AT END OF TIME STEP   41, STRESS PERIOD    3

 DRAWDOWN WILL BE SAVED ON UNIT   52 AT END OF TIME STEP   41, STRESS PERIOD    3
1
  VOLUMETRIC BUDGET FOR ENTIRE MODEL AT END OF TIME STEP   41, STRESS PERIOD   3
  ------------------------------------------------------------------------------

     CUMULATIVE VOLUMES      L**3       RATES FOR THIS TIME STEP      L**3/T
     ------------------                 ------------------------

           IN:                                      IN:
           ---                                      ---
             STORAGE =       30172.4414               STORAGE =          15.0450
       CONSTANT HEAD =           0.0000         CONSTANT HEAD =           0.0000
               WELLS =           0.0000                 WELLS =           0.0000
       RIVER LEAKAGE =       79549.6719         RIVER LEAKAGE =         824.9238

            TOTAL IN =      109722.1094              TOTAL IN =         839.9689

          OUT:                                     OUT:
          ----                                     ----
             STORAGE =       2.9601E-02               STORAGE =       6.5945E-05
       CONSTANT HEAD =           0.0000         CONSTANT HEAD =           0.0000
               WELLS =       20500.0000                 WELLS =         500.0000
       RIVER LEAKAGE =       89231.3750         RIVER LEAKAGE =         340.0150

           TOTAL OUT =      109731.4062             TOTAL OUT =         840.0150

            IN - OUT =          -9.2969              IN - OUT =      -4.6143E-02

 PERCENT DISCREPANCY =          -0.01     PERCENT DISCREPANCY =          -0.01






         TIME SUMMARY AT END OF TIME STEP   41 IN STRESS PERIOD    3
                    SECONDS     MINUTES      HOURS       DAYS        YEARS
                    -----------------------------------------------------------
   TIME STEP LENGTH  86400.      1440.0      24.000      1.0000     2.73785E-03
 STRESS PERIOD TIME 3.54240E+06  59040.      984.00      41.000     0.11225    
         TOTAL TIME 1.22688E+07 2.04480E+05  3408.0      142.00     0.38877    
1

 SOLVING FOR HEAD 

 OUTPUT CONTROL FOR STRESS PERIOD    3   TIME STEP   42
    SAVE HEAD FOR ALL LAYERS
    SAVE DRAWDOWN FOR ALL LAYERS
    SAVE BUDGET
    PRINT HEAD FOR ALL LAYERS
    PRINT BUDGET
 UBDSV1 SAVING "         STORAGE" ON UNIT  53 AT TIME STEP 42, STRESS PERIOD   3
 UBDSV2 SAVING "   CONSTANT HEAD" ON UNIT  53 AT TIME STEP 42, STRESS PERIOD   3
 UBDSV1 SAVING "FLOW RIGHT FACE " ON UNIT  53 AT TIME STEP 42, STRESS PERIOD   3
 UBDSV1 SAVING "FLOW FRONT FACE " ON UNIT  53 AT TIME STEP 42, STRESS PERIOD   3
 UBDSV1 SAVING "FLOW LOWER FACE " ON UNIT  53 AT TIME STEP 42, STRESS PERIOD   3
1
              HEAD IN LAYER   1 AT END OF TIME STEP  42 IN STRESS PERIOD    3
  ---------------------------------------------------------------------------

            1           2           3           4           5           6           7           8           9          10
 ........................................................................................................................
   1    9.996       8.423       6.897       5.472       4.207       3.142       2.240       1.446      0.7111      2.3623E-03
   2    9.996       8.376       6.794       5.308       4.006       2.976       2.131       1.384      0.6844      2.2735E-03
   3    9.995       8.289       6.595       4.959       3.529       2.622       1.921       1.275      0.6388      2.1223E-03
   4    9.995       8.189       6.336       4.400       2.516       2.059       1.652       1.154      0.5928      1.9697E-03
   5    9.995       8.137       6.155       3.770     -0.3135       1.427       1.470       1.096      0.5750      1.9109E-03
   6    9.995       8.206       6.367       4.443       2.564       2.106       1.692       1.184      0.6081      2.0206E-03
   7    9.995       8.325       6.663       5.050       3.630       2.721       2.006       1.336      0.6708      2.2287E-03
   8    9.996       8.435       6.907       5.459       4.175       3.140       2.270       1.484      0.7358      2.4444E-03
   9    9.996       8.513       7.067       5.703       4.468       3.392       2.447       1.591      0.7855      2.6095E-03
  10    9.996       8.552       7.146       5.816       4.599       3.509       2.535       1.646      0.8118      2.6967E-03
1
              HEAD IN LAYER   2 AT END OF TIME STEP  42 IN STRESS PERIOD    3
  ---------------------------------------------------------------------------

            1           2           3           4           5           6           7           8           9          10
 ........................................................................................................................
   1    9.996       8.423       6.897       5.472       4.207       3.142       2.240       1.446      0.7111      2.3623E-03
   2    9.996       8.376       6.794       5.308       4.006       2.976       2.131       1.384      0.6844      2.2735E-03
   3    9.995       8.289       6.595       4.959       3.529       2.622       1.921       1.275      0.6388      2.1223E-03
   4    9.995       8.189       6.336       4.401       2.526       2.060       1.652       1.154      0.5928      1.9697E-03
   5    9.995       8.137       6.155       3.780      0.1877       1.437       1.470       1.096      0.5750      1.9109E-03
   6    9.995       8.206       6.367       4.443       2.574       2.107       1.692       1.184      0.6081      2.0207E-03
   7    9.995       8.325       6.663       5.050       3.631       2.721       2.006       1.336      0.6708      2.2287E-03
   8    9.996       8.435       6.907       5.459       4.175       3.140       2.270       1.484      0.7358      2.4444E-03
   9    9.996       8.513       7.067       5.703       4.468       3.392       2.447       1.591      0.7855      2.6095E-03
  10    9.996       8.552       7.146       5.816       4.599       3.509       2.535       1.646      0.8118      2.6967E-03
1
              HEAD IN LAYER   3 AT END OF TIME STEP  42 IN STRESS PERIOD    3
  ---------------------------------------------------------------------------

            1           2           3           4           5           6           7           8           9          10
 ........................................................................................................................
   1    9.996       8.423       6.897       5.472       4.207       3.142       2.240       1.446      0.7111      2.3623E-03
   2    9.996       8.376       6.794       5.308       4.006       2.976       2.131       1.384      0.6844      2.2735E-03
   3    9.995       8.289       6.595       4.959       3.529       2.622       1.921       1.275      0.6388      2.1223E-03
   4    9.995       8.189       6.336       4.401       2.534       2.060       1.652       1.154      0.5928      1.9697E-03
   5    9.995       8.137       6.155       3.787      0.4278       1.445       1.470       1.096      0.5750      1.9109E-03
   6    9.995       8.206       6.367       4.444       2.582       2.107       1.692       1.184      0.6081      2.0207E-03
   7    9.995       8.325       6.663       5.050       3.631       2.722       2.006       1.336      0.6708      2.2287E-03
   8    9.996       8.435       6.907       5.459       4.175       3.140       2.270       1.484      0.7358      2.4444E-03
   9    9.996       8.513       7.067       5.703       4.468       3.392       2.447       1.591      0.7855      2.6095E-03
  10    9.996       8.552       7.146       5.816       4.599       3.509       2.535       1.646      0.8118      2.6967E-03

 HEAD WILL BE SAVED ON UNIT   51 AT END OF TIME STEP   42, STRESS PERIOD    3

 DRAWDOWN WILL BE SAVED ON UNIT   52 AT END OF TIME STEP   42, STRESS PERIOD    3
1
  VOLUMETRIC BUDGET FOR ENTIRE MODEL AT END OF TIME STEP   42, STRESS PERIOD   3
  ------------------------------------------------------------------------------

     CUMULATIVE VOLUMES      L**3       RATES FOR THIS TIME STEP      L**3/T
     ------------------                 ------------------------

           IN:                                      IN:
           ---                                      ---
             STORAGE =       30186.5742               STORAGE =          14.1333
       CONSTANT HEAD =           0.0000         CONSTANT HEAD =           0.0000
               WELLS =           0.0000                 WELLS =           0.0000
       RIVER LEAKAGE =       80375.0859         RIVER LEAKAGE =         825.4113

            TOTAL IN =      110561.6562              TOTAL IN =         839.5446

          OUT:                                     OUT:
          ----                                     ----
             STORAGE =       2.9697E-02               STORAGE =       9.5554E-05
       CONSTANT HEAD =           0.0000         CONSTANT HEAD =           0.0000
               WELLS =       21000.0000                 WELLS =         500.0000
       RIVER LEAKAGE =       89570.9531         RIVER LEAKAGE =         339.5803

           TOTAL OUT =      110570.9844             TOTAL OUT =         839.5804

            IN - OUT =          -9.3281              IN - OUT =      -3.5828E-02

 PERCENT DISCREPANCY =          -0.01     PERCENT DISCREPANCY =          -0.00






         TIME SUMMARY AT END OF TIME STEP   42 IN STRESS PERIOD    3
                    SECONDS     MINUTES      HOURS       DAYS        YEARS
                    -----------------------------------------------------------
   TIME STEP LENGTH  86400.      1440.0      24.000      1.0000     2.73785E-03
 STRESS PERIOD TIME 3.62880E+06  60480.      1008.0      42.000     0.11499    
         TOTAL TIME 1.23552E+07 2.05920E+05  3432.0      143.00     0.39151    
1

 SOLVING FOR HEAD 

 OUTPUT CONTROL FOR STRESS PERIOD    3   TIME STEP   43
    SAVE HEAD FOR ALL LAYERS
    SAVE DRAWDOWN FOR ALL LAYERS
    SAVE BUDGET
    PRINT HEAD FOR ALL LAYERS
    PRINT BUDGET
 UBDSV1 SAVING "         STORAGE" ON UNIT  53 AT TIME STEP 43, STRESS PERIOD   3
 UBDSV2 SAVING "   CONSTANT HEAD" ON UNIT  53 AT TIME STEP 43, STRESS PERIOD   3
 UBDSV1 SAVING "FLOW RIGHT FACE " ON UNIT  53 AT TIME STEP 43, STRESS PERIOD   3
 UBDSV1 SAVING "FLOW FRONT FACE " ON UNIT  53 AT TIME STEP 43, STRESS PERIOD   3
 UBDSV1 SAVING "FLOW LOWER FACE " ON UNIT  53 AT TIME STEP 43, STRESS PERIOD   3
1
              HEAD IN LAYER   1 AT END OF TIME STEP  43 IN STRESS PERIOD    3
  ---------------------------------------------------------------------------

            1           2           3           4           5           6           7           8           9          10
 ........................................................................................................................
   1    9.996       8.422       6.895       5.469       4.205       3.140       2.238       1.444      0.7103      2.3597E-03
   2    9.995       8.375       6.793       5.306       4.003       2.973       2.129       1.383      0.6836      2.2708E-03
   3    9.995       8.288       6.593       4.956       3.526       2.619       1.918       1.273      0.6379      2.1194E-03
   4    9.995       8.188       6.334       4.397       2.513       2.056       1.649       1.153      0.5919      1.9668E-03
   5    9.995       8.136       6.153       3.767     -0.3192       1.424       1.467       1.094      0.5741      1.9079E-03
   6    9.995       8.205       6.365       4.440       2.561       2.103       1.690       1.182      0.6072      2.0178E-03
   7    9.995       8.324       6.661       5.047       3.628       2.719       2.003       1.335      0.6700      2.2260E-03
   8    9.996       8.434       6.905       5.457       4.173       3.138       2.268       1.482      0.7350      2.4419E-03
   9    9.996       8.512       7.066       5.701       4.465       3.389       2.445       1.590      0.7848      2.6071E-03
  10    9.996       8.551       7.144       5.815       4.596       3.507       2.533       1.645      0.8111      2.6944E-03
1
              HEAD IN LAYER   2 AT END OF TIME STEP  43 IN STRESS PERIOD    3
  ---------------------------------------------------------------------------

            1           2           3           4           5           6           7           8           9          10
 ........................................................................................................................
   1    9.996       8.422       6.895       5.469       4.205       3.140       2.238       1.444      0.7103      2.3597E-03
   2    9.995       8.375       6.793       5.306       4.003       2.973       2.129       1.383      0.6836      2.2708E-03
   3    9.995       8.288       6.593       4.956       3.526       2.619       1.918       1.273      0.6379      2.1194E-03
   4    9.995       8.188       6.334       4.398       2.523       2.057       1.649       1.153      0.5919      1.9668E-03
   5    9.995       8.136       6.153       3.776      0.1823       1.434       1.467       1.094      0.5741      1.9079E-03
   6    9.995       8.205       6.365       4.440       2.571       2.104       1.690       1.182      0.6072      2.0178E-03
   7    9.995       8.324       6.661       5.047       3.628       2.719       2.003       1.335      0.6700      2.2260E-03
   8    9.996       8.434       6.905       5.457       4.173       3.138       2.268       1.482      0.7350      2.4419E-03
   9    9.996       8.512       7.066       5.701       4.465       3.389       2.445       1.590      0.7848      2.6071E-03
  10    9.996       8.551       7.144       5.815       4.596       3.507       2.533       1.645      0.8111      2.6944E-03
1
              HEAD IN LAYER   3 AT END OF TIME STEP  43 IN STRESS PERIOD    3
  ---------------------------------------------------------------------------

            1           2           3           4           5           6           7           8           9          10
 ........................................................................................................................
   1    9.996       8.422       6.895       5.469       4.205       3.140       2.238       1.444      0.7103      2.3597E-03
   2    9.995       8.375       6.793       5.306       4.003       2.973       2.129       1.383      0.6836      2.2708E-03
   3    9.995       8.288       6.593       4.956       3.526       2.619       1.918       1.273      0.6379      2.1194E-03
   4    9.995       8.188       6.334       4.398       2.531       2.057       1.649       1.153      0.5919      1.9668E-03
   5    9.995       8.136       6.153       3.784      0.4226       1.442       1.468       1.094      0.5741      1.9079E-03
   6    9.995       8.205       6.365       4.441       2.579       2.104       1.690       1.182      0.6072      2.0178E-03
   7    9.995       8.324       6.661       5.047       3.628       2.719       2.003       1.335      0.6700      2.2260E-03
   8    9.996       8.434       6.905       5.457       4.173       3.138       2.268       1.482      0.7350      2.4419E-03
   9    9.996       8.512       7.066       5.701       4.465       3.389       2.445       1.590      0.7848      2.6071E-03
  10    9.996       8.551       7.144       5.815       4.596       3.507       2.533       1.645      0.8111      2.6944E-03

 HEAD WILL BE SAVED ON UNIT   51 AT END OF TIME STEP   43, STRESS PERIOD    3

 DRAWDOWN WILL BE SAVED ON UNIT   52 AT END OF TIME STEP   43, STRESS PERIOD    3
1
  VOLUMETRIC BUDGET FOR ENTIRE MODEL AT END OF TIME STEP   43, STRESS PERIOD   3
  ------------------------------------------------------------------------------

     CUMULATIVE VOLUMES      L**3       RATES FOR THIS TIME STEP      L**3/T
     ------------------                 ------------------------

           IN:                                      IN:
           ---                                      ---
             STORAGE =       30199.8555               STORAGE =          13.2810
       CONSTANT HEAD =           0.0000         CONSTANT HEAD =           0.0000
               WELLS =           0.0000                 WELLS =           0.0000
       RIVER LEAKAGE =       81200.9453         RIVER LEAKAGE =         825.8564

            TOTAL IN =      111400.7969              TOTAL IN =         839.1375

          OUT:                                     OUT:
          ----                                     ----
             STORAGE =       2.9787E-02               STORAGE =       8.9891E-05
       CONSTANT HEAD =           0.0000         CONSTANT HEAD =           0.0000
               WELLS =       21500.0000                 WELLS =         500.0000
       RIVER LEAKAGE =       89910.1250         RIVER LEAKAGE =         339.1744

           TOTAL OUT =      111410.1562             TOTAL OUT =         839.1746

            IN - OUT =          -9.3594              IN - OUT =      -3.7109E-02

 PERCENT DISCREPANCY =          -0.01     PERCENT DISCREPANCY =          -0.00






         TIME SUMMARY AT END OF TIME STEP   43 IN STRESS PERIOD    3
                    SECONDS     MINUTES      HOURS       DAYS        YEARS
                    -----------------------------------------------------------
   TIME STEP LENGTH  86400.      1440.0      24.000      1.0000     2.73785E-03
 STRESS PERIOD TIME 3.71520E+06  61920.      1032.0      43.000     0.11773    
         TOTAL TIME 1.24416E+07 2.07360E+05  3456.0      144.00     0.39425    
1

 SOLVING FOR HEAD 

 OUTPUT CONTROL FOR STRESS PERIOD    3   TIME STEP   44
    SAVE HEAD FOR ALL LAYERS
    SAVE DRAWDOWN FOR ALL LAYERS
    SAVE BUDGET
    PRINT HEAD FOR ALL LAYERS
    PRINT BUDGET
 UBDSV1 SAVING "         STORAGE" ON UNIT  53 AT TIME STEP 44, STRESS PERIOD   3
 UBDSV2 SAVING "   CONSTANT HEAD" ON UNIT  53 AT TIME STEP 44, STRESS PERIOD   3
 UBDSV1 SAVING "FLOW RIGHT FACE " ON UNIT  53 AT TIME STEP 44, STRESS PERIOD   3
 UBDSV1 SAVING "FLOW FRONT FACE " ON UNIT  53 AT TIME STEP 44, STRESS PERIOD   3
 UBDSV1 SAVING "FLOW LOWER FACE " ON UNIT  53 AT TIME STEP 44, STRESS PERIOD   3
1
              HEAD IN LAYER   1 AT END OF TIME STEP  44 IN STRESS PERIOD    3
  ---------------------------------------------------------------------------

            1           2           3           4           5           6           7           8           9          10
 ........................................................................................................................
   1    9.996       8.421       6.894       5.467       4.203       3.137       2.236       1.443      0.7096      2.3572E-03
   2    9.995       8.374       6.791       5.304       4.001       2.971       2.127       1.381      0.6828      2.2682E-03
   3    9.995       8.287       6.591       4.954       3.523       2.617       1.916       1.272      0.6372      2.1168E-03
   4    9.995       8.187       6.332       4.394       2.509       2.053       1.647       1.151      0.5911      1.9640E-03
   5    9.995       8.135       6.151       3.763     -0.3246       1.420       1.465       1.093      0.5733      1.9051E-03
   6    9.995       8.204       6.363       4.437       2.557       2.100       1.687       1.180      0.6064      2.0150E-03
   7    9.995       8.323       6.659       5.045       3.625       2.716       2.001       1.333      0.6693      2.2235E-03
   8    9.996       8.434       6.904       5.455       4.170       3.136       2.266       1.481      0.7343      2.4395E-03
   9    9.996       8.511       7.065       5.699       4.463       3.387       2.444       1.588      0.7841      2.6048E-03
  10    9.996       8.550       7.143       5.813       4.594       3.505       2.531       1.644      0.8104      2.6922E-03
1
              HEAD IN LAYER   2 AT END OF TIME STEP  44 IN STRESS PERIOD    3
  ---------------------------------------------------------------------------

            1           2           3           4           5           6           7           8           9          10
 ........................................................................................................................
   1    9.996       8.421       6.894       5.467       4.203       3.137       2.236       1.443      0.7096      2.3572E-03
   2    9.995       8.374       6.791       5.304       4.001       2.971       2.127       1.381      0.6828      2.2682E-03
   3    9.995       8.287       6.591       4.954       3.523       2.617       1.916       1.272      0.6372      2.1168E-03
   4    9.995       8.187       6.332       4.395       2.519       2.054       1.647       1.151      0.5911      1.9640E-03
   5    9.995       8.135       6.151       3.773      0.1772       1.430       1.465       1.093      0.5733      1.9051E-03
   6    9.995       8.204       6.364       4.438       2.567       2.101       1.687       1.180      0.6064      2.0150E-03
   7    9.995       8.323       6.659       5.045       3.625       2.716       2.001       1.333      0.6693      2.2235E-03
   8    9.996       8.434       6.904       5.455       4.170       3.136       2.266       1.481      0.7343      2.4395E-03
   9    9.996       8.511       7.065       5.699       4.463       3.387       2.444       1.588      0.7841      2.6048E-03
  10    9.996       8.550       7.143       5.813       4.594       3.505       2.531       1.644      0.8104      2.6922E-03
1
              HEAD IN LAYER   3 AT END OF TIME STEP  44 IN STRESS PERIOD    3
  ---------------------------------------------------------------------------

            1           2           3           4           5           6           7           8           9          10
 ........................................................................................................................
   1    9.996       8.421       6.894       5.467       4.203       3.137       2.236       1.443      0.7096      2.3572E-03
   2    9.995       8.374       6.791       5.304       4.001       2.971       2.127       1.381      0.6828      2.2682E-03
   3    9.995       8.287       6.591       4.954       3.523       2.617       1.916       1.272      0.6372      2.1168E-03
   4    9.995       8.187       6.332       4.395       2.527       2.054       1.647       1.151      0.5911      1.9640E-03
   5    9.995       8.135       6.151       3.781      0.4176       1.438       1.465       1.093      0.5733      1.9051E-03
   6    9.995       8.204       6.364       4.438       2.575       2.101       1.687       1.180      0.6064      2.0150E-03
   7    9.995       8.323       6.659       5.045       3.625       2.716       2.001       1.333      0.6693      2.2235E-03
   8    9.996       8.434       6.904       5.455       4.170       3.136       2.266       1.481      0.7343      2.4395E-03
   9    9.996       8.511       7.065       5.699       4.463       3.387       2.444       1.588      0.7841      2.6048E-03
  10    9.996       8.550       7.143       5.813       4.594       3.505       2.531       1.644      0.8104      2.6922E-03

 HEAD WILL BE SAVED ON UNIT   51 AT END OF TIME STEP   44, STRESS PERIOD    3

 DRAWDOWN WILL BE SAVED ON UNIT   52 AT END OF TIME STEP   44, STRESS PERIOD    3
1
  VOLUMETRIC BUDGET FOR ENTIRE MODEL AT END OF TIME STEP   44, STRESS PERIOD   3
  ------------------------------------------------------------------------------

     CUMULATIVE VOLUMES      L**3       RATES FOR THIS TIME STEP      L**3/T
     ------------------                 ------------------------

           IN:                                      IN:
           ---                                      ---
             STORAGE =       30212.3398               STORAGE =          12.4835
       CONSTANT HEAD =           0.0000         CONSTANT HEAD =           0.0000
               WELLS =           0.0000                 WELLS =           0.0000
       RIVER LEAKAGE =       82027.2188         RIVER LEAKAGE =         826.2734

            TOTAL IN =      112239.5625              TOTAL IN =         838.7570

          OUT:                                     OUT:
          ----                                     ----
             STORAGE =       2.9950E-02               STORAGE =       1.6331E-04
       CONSTANT HEAD =           0.0000         CONSTANT HEAD =           0.0000
               WELLS =       22000.0000                 WELLS =         500.0000
       RIVER LEAKAGE =       90248.9219         RIVER LEAKAGE =         338.7954

           TOTAL OUT =      112248.9531             TOTAL OUT =         838.7955

            IN - OUT =          -9.3906              IN - OUT =      -3.8574E-02

 PERCENT DISCREPANCY =          -0.01     PERCENT DISCREPANCY =          -0.00






         TIME SUMMARY AT END OF TIME STEP   44 IN STRESS PERIOD    3
                    SECONDS     MINUTES      HOURS       DAYS        YEARS
                    -----------------------------------------------------------
   TIME STEP LENGTH  86400.      1440.0      24.000      1.0000     2.73785E-03
 STRESS PERIOD TIME 3.80160E+06  63360.      1056.0      44.000     0.12047    
         TOTAL TIME 1.25280E+07 2.08800E+05  3480.0      145.00     0.39699    
1

 SOLVING FOR HEAD 

 OUTPUT CONTROL FOR STRESS PERIOD    3   TIME STEP   45
    SAVE HEAD FOR ALL LAYERS
    SAVE DRAWDOWN FOR ALL LAYERS
    SAVE BUDGET
    PRINT HEAD FOR ALL LAYERS
    PRINT BUDGET
 UBDSV1 SAVING "         STORAGE" ON UNIT  53 AT TIME STEP 45, STRESS PERIOD   3
 UBDSV2 SAVING "   CONSTANT HEAD" ON UNIT  53 AT TIME STEP 45, STRESS PERIOD   3
 UBDSV1 SAVING "FLOW RIGHT FACE " ON UNIT  53 AT TIME STEP 45, STRESS PERIOD   3
 UBDSV1 SAVING "FLOW FRONT FACE " ON UNIT  53 AT TIME STEP 45, STRESS PERIOD   3
 UBDSV1 SAVING "FLOW LOWER FACE " ON UNIT  53 AT TIME STEP 45, STRESS PERIOD   3
1
              HEAD IN LAYER   1 AT END OF TIME STEP  45 IN STRESS PERIOD    3
  ---------------------------------------------------------------------------

            1           2           3           4           5           6           7           8           9          10
 ........................................................................................................................
   1    9.996       8.421       6.892       5.466       4.200       3.135       2.234       1.442      0.7089      2.3549E-03
   2    9.995       8.373       6.790       5.302       3.998       2.969       2.125       1.380      0.6821      2.2659E-03
   3    9.995       8.286       6.590       4.952       3.520       2.614       1.914       1.270      0.6364      2.1143E-03
   4    9.995       8.186       6.330       4.392       2.506       2.050       1.645       1.150      0.5903      1.9614E-03
   5    9.995       8.134       6.149       3.760     -0.3297       1.417       1.462       1.091      0.5725      1.9025E-03
   6    9.995       8.203       6.362       4.435       2.554       2.097       1.685       1.179      0.6057      2.0125E-03
   7    9.995       8.323       6.658       5.043       3.622       2.714       1.999       1.332      0.6685      2.2211E-03
   8    9.996       8.433       6.902       5.453       4.168       3.133       2.264       1.480      0.7337      2.4373E-03
   9    9.996       8.511       7.063       5.698       4.462       3.386       2.442       1.587      0.7835      2.6027E-03
  10    9.996       8.550       7.142       5.811       4.593       3.503       2.530       1.643      0.8098      2.6902E-03
1
              HEAD IN LAYER   2 AT END OF TIME STEP  45 IN STRESS PERIOD    3
  ---------------------------------------------------------------------------

            1           2           3           4           5           6           7           8           9          10
 ........................................................................................................................
   1    9.996       8.421       6.892       5.466       4.200       3.135       2.234       1.442      0.7089      2.3549E-03
   2    9.995       8.373       6.790       5.302       3.998       2.969       2.125       1.380      0.6821      2.2659E-03
   3    9.995       8.286       6.590       4.952       3.521       2.614       1.914       1.270      0.6364      2.1143E-03
   4    9.995       8.186       6.330       4.392       2.516       2.051       1.645       1.150      0.5903      1.9614E-03
   5    9.995       8.134       6.149       3.770      0.1724       1.427       1.462       1.091      0.5725      1.9025E-03
   6    9.995       8.203       6.362       4.435       2.564       2.098       1.685       1.179      0.6057      2.0125E-03
   7    9.995       8.323       6.658       5.043       3.623       2.714       1.999       1.332      0.6685      2.2211E-03
   8    9.996       8.433       6.902       5.453       4.168       3.133       2.264       1.480      0.7337      2.4373E-03
   9    9.996       8.511       7.063       5.698       4.462       3.386       2.442       1.587      0.7835      2.6027E-03
  10    9.996       8.550       7.142       5.811       4.593       3.503       2.530       1.643      0.8098      2.6902E-03
1
              HEAD IN LAYER   3 AT END OF TIME STEP  45 IN STRESS PERIOD    3
  ---------------------------------------------------------------------------

            1           2           3           4           5           6           7           8           9          10
 ........................................................................................................................
   1    9.996       8.421       6.892       5.466       4.200       3.135       2.234       1.442      0.7089      2.3549E-03
   2    9.995       8.373       6.790       5.302       3.998       2.969       2.125       1.380      0.6821      2.2659E-03
   3    9.995       8.286       6.590       4.952       3.521       2.614       1.914       1.270      0.6364      2.1143E-03
   4    9.995       8.186       6.330       4.393       2.524       2.051       1.645       1.150      0.5903      1.9614E-03
   5    9.995       8.134       6.149       3.778      0.4130       1.435       1.463       1.091      0.5725      1.9024E-03
   6    9.995       8.203       6.362       4.435       2.572       2.098       1.685       1.179      0.6057      2.0125E-03
   7    9.995       8.323       6.658       5.043       3.623       2.714       1.999       1.332      0.6685      2.2211E-03
   8    9.996       8.433       6.902       5.453       4.168       3.133       2.264       1.480      0.7337      2.4373E-03
   9    9.996       8.511       7.063       5.698       4.462       3.386       2.442       1.587      0.7835      2.6027E-03
  10    9.996       8.550       7.142       5.811       4.593       3.503       2.530       1.643      0.8098      2.6902E-03

 HEAD WILL BE SAVED ON UNIT   51 AT END OF TIME STEP   45, STRESS PERIOD    3

 DRAWDOWN WILL BE SAVED ON UNIT   52 AT END OF TIME STEP   45, STRESS PERIOD    3
1
  VOLUMETRIC BUDGET FOR ENTIRE MODEL AT END OF TIME STEP   45, STRESS PERIOD   3
  ------------------------------------------------------------------------------

     CUMULATIVE VOLUMES      L**3       RATES FOR THIS TIME STEP      L**3/T
     ------------------                 ------------------------

           IN:                                      IN:
           ---                                      ---
             STORAGE =       30224.0762               STORAGE =          11.7372
       CONSTANT HEAD =           0.0000         CONSTANT HEAD =           0.0000
               WELLS =           0.0000                 WELLS =           0.0000
       RIVER LEAKAGE =       82853.8828         RIVER LEAKAGE =         826.6641

            TOTAL IN =      113077.9609              TOTAL IN =         838.4013

          OUT:                                     OUT:
          ----                                     ----
             STORAGE =       3.0092E-02               STORAGE =       1.4159E-04
       CONSTANT HEAD =           0.0000         CONSTANT HEAD =           0.0000
               WELLS =       22500.0000                 WELLS =         500.0000
       RIVER LEAKAGE =       90587.3594         RIVER LEAKAGE =         338.4408

           TOTAL OUT =      113087.3906             TOTAL OUT =         838.4410

            IN - OUT =          -9.4297              IN - OUT =      -3.9673E-02

 PERCENT DISCREPANCY =          -0.01     PERCENT DISCREPANCY =          -0.00






         TIME SUMMARY AT END OF TIME STEP   45 IN STRESS PERIOD    3
                    SECONDS     MINUTES      HOURS       DAYS        YEARS
                    -----------------------------------------------------------
   TIME STEP LENGTH  86400.      1440.0      24.000      1.0000     2.73785E-03
 STRESS PERIOD TIME 3.88800E+06  64800.      1080.0      45.000     0.12320    
         TOTAL TIME 1.26144E+07 2.10240E+05  3504.0      146.00     0.39973    
1

 SOLVING FOR HEAD 

 OUTPUT CONTROL FOR STRESS PERIOD    3   TIME STEP   46
    SAVE HEAD FOR ALL LAYERS
    SAVE DRAWDOWN FOR ALL LAYERS
    SAVE BUDGET
    PRINT HEAD FOR ALL LAYERS
    PRINT BUDGET
 UBDSV1 SAVING "         STORAGE" ON UNIT  53 AT TIME STEP 46, STRESS PERIOD   3
 UBDSV2 SAVING "   CONSTANT HEAD" ON UNIT  53 AT TIME STEP 46, STRESS PERIOD   3
 UBDSV1 SAVING "FLOW RIGHT FACE " ON UNIT  53 AT TIME STEP 46, STRESS PERIOD   3
 UBDSV1 SAVING "FLOW FRONT FACE " ON UNIT  53 AT TIME STEP 46, STRESS PERIOD   3
 UBDSV1 SAVING "FLOW LOWER FACE " ON UNIT  53 AT TIME STEP 46, STRESS PERIOD   3
1
              HEAD IN LAYER   1 AT END OF TIME STEP  46 IN STRESS PERIOD    3
  ---------------------------------------------------------------------------

            1           2           3           4           5           6           7           8           9          10
 ........................................................................................................................
   1    9.996       8.420       6.891       5.464       4.198       3.133       2.233       1.440      0.7083      2.3527E-03
   2    9.995       8.373       6.788       5.300       3.996       2.967       2.123       1.379      0.6814      2.2637E-03
   3    9.995       8.286       6.588       4.950       3.518       2.612       1.912       1.269      0.6357      2.1120E-03
   4    9.995       8.186       6.328       4.389       2.503       2.048       1.643       1.148      0.5896      1.9590E-03
   5    9.995       8.133       6.147       3.758     -0.3345       1.414       1.460       1.090      0.5717      1.9000E-03
   6    9.995       8.203       6.360       4.432       2.551       2.095       1.683       1.177      0.6049      2.0101E-03
   7    9.995       8.322       6.656       5.041       3.620       2.712       1.997       1.331      0.6679      2.2189E-03
   8    9.996       8.432       6.901       5.451       4.166       3.132       2.262       1.478      0.7330      2.4352E-03
   9    9.996       8.510       7.062       5.696       4.460       3.384       2.441       1.586      0.7829      2.6008E-03
  10    9.996       8.549       7.141       5.810       4.591       3.502       2.528       1.642      0.8093      2.6883E-03
1
              HEAD IN LAYER   2 AT END OF TIME STEP  46 IN STRESS PERIOD    3
  ---------------------------------------------------------------------------

            1           2           3           4           5           6           7           8           9          10
 ........................................................................................................................
   1    9.996       8.420       6.891       5.464       4.198       3.133       2.233       1.440      0.7083      2.3527E-03
   2    9.995       8.373       6.788       5.300       3.996       2.967       2.123       1.379      0.6814      2.2637E-03
   3    9.995       8.286       6.588       4.950       3.518       2.612       1.912       1.269      0.6357      2.1120E-03
   4    9.995       8.186       6.328       4.390       2.513       2.048       1.643       1.148      0.5896      1.9590E-03
   5    9.995       8.133       6.147       3.767      0.1678       1.424       1.460       1.090      0.5717      1.9000E-03
   6    9.995       8.203       6.360       4.433       2.561       2.095       1.683       1.177      0.6049      2.0101E-03
   7    9.995       8.322       6.656       5.041       3.620       2.712       1.997       1.331      0.6679      2.2189E-03
   8    9.996       8.432       6.901       5.451       4.166       3.132       2.262       1.478      0.7330      2.4352E-03
   9    9.996       8.510       7.062       5.696       4.460       3.384       2.441       1.586      0.7829      2.6008E-03
  10    9.996       8.549       7.141       5.810       4.591       3.502       2.528       1.642      0.8093      2.6883E-03
1
              HEAD IN LAYER   3 AT END OF TIME STEP  46 IN STRESS PERIOD    3
  ---------------------------------------------------------------------------

            1           2           3           4           5           6           7           8           9          10
 ........................................................................................................................
   1    9.996       8.420       6.891       5.464       4.198       3.133       2.233       1.440      0.7083      2.3527E-03
   2    9.995       8.373       6.788       5.300       3.996       2.967       2.123       1.379      0.6814      2.2636E-03
   3    9.995       8.286       6.588       4.950       3.518       2.612       1.912       1.269      0.6357      2.1120E-03
   4    9.995       8.186       6.328       4.390       2.521       2.049       1.643       1.148      0.5896      1.9590E-03
   5    9.995       8.133       6.148       3.775      0.4086       1.432       1.461       1.090      0.5717      1.9000E-03
   6    9.995       8.203       6.360       4.433       2.569       2.096       1.683       1.177      0.6049      2.0101E-03
   7    9.995       8.322       6.656       5.041       3.621       2.712       1.997       1.331      0.6679      2.2188E-03
   8    9.996       8.432       6.901       5.451       4.166       3.132       2.262       1.478      0.7330      2.4352E-03
   9    9.996       8.510       7.062       5.696       4.460       3.384       2.441       1.586      0.7829      2.6008E-03
  10    9.996       8.549       7.141       5.810       4.591       3.502       2.528       1.642      0.8093      2.6883E-03

 HEAD WILL BE SAVED ON UNIT   51 AT END OF TIME STEP   46, STRESS PERIOD    3

 DRAWDOWN WILL BE SAVED ON UNIT   52 AT END OF TIME STEP   46, STRESS PERIOD    3
1
  VOLUMETRIC BUDGET FOR ENTIRE MODEL AT END OF TIME STEP   46, STRESS PERIOD   3
  ------------------------------------------------------------------------------

     CUMULATIVE VOLUMES      L**3       RATES FOR THIS TIME STEP      L**3/T
     ------------------                 ------------------------

           IN:                                      IN:
           ---                                      ---
             STORAGE =       30235.1133               STORAGE =          11.0380
       CONSTANT HEAD =           0.0000         CONSTANT HEAD =           0.0000
               WELLS =           0.0000                 WELLS =           0.0000
       RIVER LEAKAGE =       83680.9141         RIVER LEAKAGE =         827.0305

            TOTAL IN =      113916.0312              TOTAL IN =         838.0685

          OUT:                                     OUT:
          ----                                     ----
             STORAGE =       3.0220E-02               STORAGE =       1.2796E-04
       CONSTANT HEAD =           0.0000         CONSTANT HEAD =           0.0000
               WELLS =       23000.0000                 WELLS =         500.0000
       RIVER LEAKAGE =       90925.4688         RIVER LEAKAGE =         338.1089

           TOTAL OUT =      113925.5000             TOTAL OUT =         838.1091

            IN - OUT =          -9.4688              IN - OUT =      -4.0527E-02

 PERCENT DISCREPANCY =          -0.01     PERCENT DISCREPANCY =          -0.00






         TIME SUMMARY AT END OF TIME STEP   46 IN STRESS PERIOD    3
                    SECONDS     MINUTES      HOURS       DAYS        YEARS
                    -----------------------------------------------------------
   TIME STEP LENGTH  86400.      1440.0      24.000      1.0000     2.73785E-03
 STRESS PERIOD TIME 3.97440E+06  66240.      1104.0      46.000     0.12594    
         TOTAL TIME 1.27008E+07 2.11680E+05  3528.0      147.00     0.40246    
1

 SOLVING FOR HEAD 

 OUTPUT CONTROL FOR STRESS PERIOD    3   TIME STEP   47
    SAVE HEAD FOR ALL LAYERS
    SAVE DRAWDOWN FOR ALL LAYERS
    SAVE BUDGET
    PRINT HEAD FOR ALL LAYERS
    PRINT BUDGET
 UBDSV1 SAVING "         STORAGE" ON UNIT  53 AT TIME STEP 47, STRESS PERIOD   3
 UBDSV2 SAVING "   CONSTANT HEAD" ON UNIT  53 AT TIME STEP 47, STRESS PERIOD   3
 UBDSV1 SAVING "FLOW RIGHT FACE " ON UNIT  53 AT TIME STEP 47, STRESS PERIOD   3
 UBDSV1 SAVING "FLOW FRONT FACE " ON UNIT  53 AT TIME STEP 47, STRESS PERIOD   3
 UBDSV1 SAVING "FLOW LOWER FACE " ON UNIT  53 AT TIME STEP 47, STRESS PERIOD   3
1
              HEAD IN LAYER   1 AT END OF TIME STEP  47 IN STRESS PERIOD    3
  ---------------------------------------------------------------------------

            1           2           3           4           5           6           7           8           9          10
 ........................................................................................................................
   1    9.996       8.419       6.890       5.462       4.197       3.131       2.231       1.439      0.7077      2.3507E-03
   2    9.995       8.372       6.787       5.298       3.994       2.965       2.121       1.378      0.6808      2.2616E-03
   3    9.995       8.285       6.587       4.948       3.516       2.610       1.910       1.268      0.6350      2.1098E-03
   4    9.995       8.185       6.327       4.387       2.500       2.045       1.641       1.147      0.5889      1.9567E-03
   5    9.995       8.132       6.146       3.755     -0.3390       1.411       1.458       1.088      0.5710      1.8977E-03
   6    9.995       8.202       6.359       4.430       2.548       2.092       1.681       1.176      0.6043      2.0079E-03
   7    9.995       8.321       6.655       5.039       3.618       2.710       1.996       1.329      0.6672      2.2168E-03
   8    9.996       8.432       6.900       5.450       4.164       3.130       2.261       1.477      0.7325      2.4333E-03
   9    9.996       8.509       7.061       5.695       4.458       3.382       2.439       1.585      0.7824      2.5990E-03
  10    9.996       8.549       7.140       5.808       4.589       3.500       2.527       1.641      0.8087      2.6865E-03
1
              HEAD IN LAYER   2 AT END OF TIME STEP  47 IN STRESS PERIOD    3
  ---------------------------------------------------------------------------

            1           2           3           4           5           6           7           8           9          10
 ........................................................................................................................
   1    9.996       8.419       6.890       5.462       4.197       3.131       2.231       1.439      0.7077      2.3507E-03
   2    9.995       8.372       6.787       5.298       3.994       2.965       2.121       1.378      0.6808      2.2616E-03
   3    9.995       8.285       6.587       4.948       3.516       2.610       1.910       1.268      0.6350      2.1098E-03
   4    9.995       8.185       6.327       4.388       2.510       2.046       1.641       1.147      0.5889      1.9567E-03
   5    9.995       8.132       6.146       3.765      0.1636       1.421       1.458       1.088      0.5710      1.8977E-03
   6    9.995       8.202       6.359       4.430       2.558       2.093       1.681       1.176      0.6043      2.0079E-03
   7    9.995       8.321       6.655       5.039       3.618       2.710       1.996       1.329      0.6672      2.2168E-03
   8    9.996       8.432       6.900       5.450       4.164       3.130       2.261       1.477      0.7325      2.4333E-03
   9    9.996       8.509       7.061       5.695       4.458       3.382       2.439       1.585      0.7824      2.5990E-03
  10    9.996       8.549       7.140       5.808       4.589       3.500       2.527       1.641      0.8087      2.6865E-03
1
              HEAD IN LAYER   3 AT END OF TIME STEP  47 IN STRESS PERIOD    3
  ---------------------------------------------------------------------------

            1           2           3           4           5           6           7           8           9          10
 ........................................................................................................................
   1    9.996       8.419       6.890       5.462       4.197       3.131       2.231       1.439      0.7077      2.3507E-03
   2    9.995       8.372       6.787       5.298       3.994       2.965       2.121       1.378      0.6808      2.2616E-03
   3    9.995       8.285       6.587       4.948       3.516       2.610       1.910       1.268      0.6350      2.1098E-03
   4    9.995       8.185       6.327       4.388       2.518       2.046       1.641       1.147      0.5889      1.9567E-03
   5    9.995       8.132       6.146       3.773      0.4045       1.429       1.458       1.088      0.5710      1.8977E-03
   6    9.995       8.202       6.359       4.431       2.566       2.093       1.681       1.176      0.6043      2.0079E-03
   7    9.995       8.321       6.655       5.039       3.618       2.710       1.996       1.329      0.6672      2.2168E-03
   8    9.996       8.432       6.900       5.450       4.164       3.130       2.261       1.477      0.7325      2.4332E-03
   9    9.996       8.509       7.061       5.695       4.458       3.382       2.439       1.585      0.7824      2.5989E-03
  10    9.996       8.549       7.140       5.808       4.589       3.500       2.527       1.641      0.8087      2.6865E-03

 HEAD WILL BE SAVED ON UNIT   51 AT END OF TIME STEP   47, STRESS PERIOD    3

 DRAWDOWN WILL BE SAVED ON UNIT   52 AT END OF TIME STEP   47, STRESS PERIOD    3
1
  VOLUMETRIC BUDGET FOR ENTIRE MODEL AT END OF TIME STEP   47, STRESS PERIOD   3
  ------------------------------------------------------------------------------

     CUMULATIVE VOLUMES      L**3       RATES FOR THIS TIME STEP      L**3/T
     ------------------                 ------------------------

           IN:                                      IN:
           ---                                      ---
             STORAGE =       30245.4961               STORAGE =          10.3825
       CONSTANT HEAD =           0.0000         CONSTANT HEAD =           0.0000
               WELLS =           0.0000                 WELLS =           0.0000
       RIVER LEAKAGE =       84508.2891         RIVER LEAKAGE =         827.3742

            TOTAL IN =      114753.7812              TOTAL IN =         837.7567

          OUT:                                     OUT:
          ----                                     ----
             STORAGE =       3.0353E-02               STORAGE =       1.3347E-04
       CONSTANT HEAD =           0.0000         CONSTANT HEAD =           0.0000
               WELLS =       23500.0000                 WELLS =         500.0000
       RIVER LEAKAGE =       91263.2656         RIVER LEAKAGE =         337.7982

           TOTAL OUT =      114763.2969             TOTAL OUT =         837.7983

            IN - OUT =          -9.5156              IN - OUT =      -4.1687E-02

 PERCENT DISCREPANCY =          -0.01     PERCENT DISCREPANCY =          -0.00






         TIME SUMMARY AT END OF TIME STEP   47 IN STRESS PERIOD    3
                    SECONDS     MINUTES      HOURS       DAYS        YEARS
                    -----------------------------------------------------------
   TIME STEP LENGTH  86400.      1440.0      24.000      1.0000     2.73785E-03
 STRESS PERIOD TIME 4.06080E+06  67680.      1128.0      47.000     0.12868    
         TOTAL TIME 1.27872E+07 2.13120E+05  3552.0      148.00     0.40520    
1

 SOLVING FOR HEAD 

 OUTPUT CONTROL FOR STRESS PERIOD    3   TIME STEP   48
    SAVE HEAD FOR ALL LAYERS
    SAVE DRAWDOWN FOR ALL LAYERS
    SAVE BUDGET
    PRINT HEAD FOR ALL LAYERS
    PRINT BUDGET
 UBDSV1 SAVING "         STORAGE" ON UNIT  53 AT TIME STEP 48, STRESS PERIOD   3
 UBDSV2 SAVING "   CONSTANT HEAD" ON UNIT  53 AT TIME STEP 48, STRESS PERIOD   3
 UBDSV1 SAVING "FLOW RIGHT FACE " ON UNIT  53 AT TIME STEP 48, STRESS PERIOD   3
 UBDSV1 SAVING "FLOW FRONT FACE " ON UNIT  53 AT TIME STEP 48, STRESS PERIOD   3
 UBDSV1 SAVING "FLOW LOWER FACE " ON UNIT  53 AT TIME STEP 48, STRESS PERIOD   3
1
              HEAD IN LAYER   1 AT END OF TIME STEP  48 IN STRESS PERIOD    3
  ---------------------------------------------------------------------------

            1           2           3           4           5           6           7           8           9          10
 ........................................................................................................................
   1    9.996       8.419       6.889       5.461       4.195       3.130       2.230       1.438      0.7071      2.3488E-03
   2    9.995       8.371       6.786       5.297       3.992       2.963       2.120       1.376      0.6802      2.2596E-03
   3    9.995       8.284       6.586       4.946       3.514       2.608       1.909       1.267      0.6344      2.1078E-03
   4    9.995       8.184       6.325       4.385       2.498       2.043       1.639       1.146      0.5882      1.9546E-03
   5    9.995       8.131       6.144       3.753     -0.3432       1.408       1.456       1.087      0.5704      1.8955E-03
   6    9.995       8.201       6.357       4.428       2.546       2.090       1.679       1.175      0.6036      2.0058E-03
   7    9.995       8.320       6.654       5.037       3.616       2.708       1.994       1.328      0.6666      2.2148E-03
   8    9.996       8.431       6.899       5.448       4.163       3.128       2.259       1.476      0.7319      2.4314E-03
   9    9.996       8.509       7.060       5.693       4.457       3.381       2.438       1.584      0.7818      2.5972E-03
  10    9.996       8.548       7.139       5.807       4.588       3.499       2.526       1.640      0.8082      2.6849E-03
1
              HEAD IN LAYER   2 AT END OF TIME STEP  48 IN STRESS PERIOD    3
  ---------------------------------------------------------------------------

            1           2           3           4           5           6           7           8           9          10
 ........................................................................................................................
   1    9.996       8.419       6.889       5.461       4.195       3.130       2.230       1.438      0.7071      2.3488E-03
   2    9.995       8.371       6.786       5.297       3.992       2.963       2.120       1.376      0.6802      2.2596E-03
   3    9.995       8.284       6.586       4.946       3.514       2.608       1.909       1.267      0.6344      2.1078E-03
   4    9.995       8.184       6.325       4.385       2.508       2.043       1.639       1.146      0.5882      1.9546E-03
   5    9.995       8.131       6.144       3.762      0.1595       1.419       1.456       1.087      0.5704      1.8955E-03
   6    9.995       8.201       6.357       4.428       2.556       2.091       1.679       1.175      0.6036      2.0058E-03
   7    9.995       8.320       6.654       5.037       3.616       2.708       1.994       1.328      0.6666      2.2148E-03
   8    9.996       8.431       6.899       5.448       4.163       3.128       2.259       1.476      0.7319      2.4314E-03
   9    9.996       8.509       7.060       5.693       4.457       3.381       2.438       1.584      0.7818      2.5972E-03
  10    9.996       8.548       7.139       5.807       4.588       3.499       2.526       1.640      0.8082      2.6849E-03
1
              HEAD IN LAYER   3 AT END OF TIME STEP  48 IN STRESS PERIOD    3
  ---------------------------------------------------------------------------

            1           2           3           4           5           6           7           8           9          10
 ........................................................................................................................
   1    9.996       8.419       6.889       5.461       4.195       3.130       2.230       1.438      0.7071      2.3488E-03
   2    9.995       8.371       6.786       5.297       3.993       2.963       2.120       1.376      0.6802      2.2596E-03
   3    9.995       8.284       6.586       4.946       3.514       2.608       1.909       1.267      0.6344      2.1078E-03
   4    9.995       8.184       6.325       4.386       2.515       2.044       1.639       1.146      0.5882      1.9546E-03
   5    9.995       8.131       6.144       3.770      0.4005       1.427       1.457       1.087      0.5704      1.8955E-03
   6    9.995       8.201       6.357       4.429       2.564       2.091       1.679       1.175      0.6036      2.0058E-03
   7    9.995       8.320       6.654       5.037       3.616       2.708       1.994       1.328      0.6666      2.2148E-03
   8    9.996       8.431       6.899       5.448       4.163       3.128       2.259       1.476      0.7319      2.4314E-03
   9    9.996       8.509       7.060       5.693       4.457       3.381       2.438       1.584      0.7818      2.5972E-03
  10    9.996       8.548       7.139       5.807       4.588       3.499       2.526       1.640      0.8082      2.6849E-03

 HEAD WILL BE SAVED ON UNIT   51 AT END OF TIME STEP   48, STRESS PERIOD    3

 DRAWDOWN WILL BE SAVED ON UNIT   52 AT END OF TIME STEP   48, STRESS PERIOD    3
1
  VOLUMETRIC BUDGET FOR ENTIRE MODEL AT END OF TIME STEP   48, STRESS PERIOD   3
  ------------------------------------------------------------------------------

     CUMULATIVE VOLUMES      L**3       RATES FOR THIS TIME STEP      L**3/T
     ------------------                 ------------------------

           IN:                                      IN:
           ---                                      ---
             STORAGE =       30255.2637               STORAGE =           9.7675
       CONSTANT HEAD =           0.0000         CONSTANT HEAD =           0.0000
               WELLS =           0.0000                 WELLS =           0.0000
       RIVER LEAKAGE =       85335.9922         RIVER LEAKAGE =         827.7007

            TOTAL IN =      115591.2578              TOTAL IN =         837.4682

          OUT:                                     OUT:
          ----                                     ----
             STORAGE =       3.0529E-02               STORAGE =       1.7582E-04
       CONSTANT HEAD =           0.0000         CONSTANT HEAD =           0.0000
               WELLS =       24000.0000                 WELLS =         500.0000
       RIVER LEAKAGE =       91600.7734         RIVER LEAKAGE =         337.5068

           TOTAL OUT =      115600.8047             TOTAL OUT =         837.5070

            IN - OUT =          -9.5469              IN - OUT =      -3.8757E-02

 PERCENT DISCREPANCY =          -0.01     PERCENT DISCREPANCY =          -0.00






         TIME SUMMARY AT END OF TIME STEP   48 IN STRESS PERIOD    3
                    SECONDS     MINUTES      HOURS       DAYS        YEARS
                    -----------------------------------------------------------
   TIME STEP LENGTH  86400.      1440.0      24.000      1.0000     2.73785E-03
 STRESS PERIOD TIME 4.14720E+06  69120.      1152.0      48.000     0.13142    
         TOTAL TIME 1.28736E+07 2.14560E+05  3576.0      149.00     0.40794    
1

 SOLVING FOR HEAD 

 OUTPUT CONTROL FOR STRESS PERIOD    3   TIME STEP   49
    SAVE HEAD FOR ALL LAYERS
    SAVE DRAWDOWN FOR ALL LAYERS
    SAVE BUDGET
    PRINT HEAD FOR ALL LAYERS
    PRINT BUDGET
 UBDSV1 SAVING "         STORAGE" ON UNIT  53 AT TIME STEP 49, STRESS PERIOD   3
 UBDSV2 SAVING "   CONSTANT HEAD" ON UNIT  53 AT TIME STEP 49, STRESS PERIOD   3
 UBDSV1 SAVING "FLOW RIGHT FACE " ON UNIT  53 AT TIME STEP 49, STRESS PERIOD   3
 UBDSV1 SAVING "FLOW FRONT FACE " ON UNIT  53 AT TIME STEP 49, STRESS PERIOD   3
 UBDSV1 SAVING "FLOW LOWER FACE " ON UNIT  53 AT TIME STEP 49, STRESS PERIOD   3
1
              HEAD IN LAYER   1 AT END OF TIME STEP  49 IN STRESS PERIOD    3
  ---------------------------------------------------------------------------

            1           2           3           4           5           6           7           8           9          10
 ........................................................................................................................
   1    9.996       8.418       6.888       5.459       4.193       3.128       2.228       1.437      0.7065      2.3470E-03
   2    9.995       8.371       6.785       5.295       3.991       2.961       2.118       1.375      0.6797      2.2578E-03
   3    9.995       8.284       6.584       4.944       3.512       2.606       1.907       1.265      0.6339      2.1058E-03
   4    9.995       8.183       6.324       4.383       2.495       2.041       1.637       1.144      0.5876      1.9526E-03
   5    9.995       8.131       6.143       3.750     -0.3473       1.406       1.454       1.086      0.5698      1.8935E-03
   6    9.995       8.200       6.356       4.426       2.543       2.088       1.678       1.174      0.6030      2.0038E-03
   7    9.995       8.320       6.652       5.035       3.614       2.706       1.993       1.327      0.6661      2.2130E-03
   8    9.996       8.430       6.897       5.447       4.161       3.126       2.258       1.475      0.7314      2.4297E-03
   9    9.996       8.508       7.059       5.692       4.455       3.379       2.437       1.583      0.7814      2.5956E-03
  10    9.996       8.548       7.138       5.806       4.587       3.497       2.525       1.639      0.8078      2.6834E-03
1
              HEAD IN LAYER   2 AT END OF TIME STEP  49 IN STRESS PERIOD    3
  ---------------------------------------------------------------------------

            1           2           3           4           5           6           7           8           9          10
 ........................................................................................................................
   1    9.996       8.418       6.888       5.459       4.193       3.128       2.228       1.437      0.7065      2.3470E-03
   2    9.995       8.371       6.785       5.295       3.991       2.961       2.118       1.375      0.6797      2.2578E-03
   3    9.995       8.284       6.584       4.944       3.512       2.606       1.907       1.265      0.6339      2.1058E-03
   4    9.995       8.183       6.324       4.383       2.505       2.041       1.637       1.144      0.5876      1.9526E-03
   5    9.995       8.131       6.143       3.760      0.1557       1.416       1.454       1.086      0.5698      1.8935E-03
   6    9.995       8.200       6.356       4.426       2.553       2.088       1.678       1.174      0.6030      2.0038E-03
   7    9.995       8.320       6.652       5.035       3.614       2.706       1.993       1.327      0.6661      2.2130E-03
   8    9.996       8.430       6.897       5.447       4.161       3.126       2.258       1.475      0.7314      2.4297E-03
   9    9.996       8.508       7.059       5.692       4.455       3.379       2.437       1.583      0.7814      2.5956E-03
  10    9.996       8.548       7.138       5.806       4.587       3.497       2.525       1.639      0.8078      2.6834E-03
1
              HEAD IN LAYER   3 AT END OF TIME STEP  49 IN STRESS PERIOD    3
  ---------------------------------------------------------------------------

            1           2           3           4           5           6           7           8           9          10
 ........................................................................................................................
   1    9.996       8.418       6.888       5.459       4.193       3.128       2.228       1.437      0.7065      2.3470E-03
   2    9.995       8.371       6.785       5.295       3.991       2.961       2.118       1.375      0.6797      2.2578E-03
   3    9.995       8.284       6.584       4.944       3.512       2.606       1.907       1.265      0.6339      2.1058E-03
   4    9.995       8.183       6.324       4.384       2.513       2.042       1.637       1.144      0.5876      1.9526E-03
   5    9.995       8.131       6.143       3.768      0.3969       1.424       1.455       1.086      0.5698      1.8935E-03
   6    9.995       8.200       6.356       4.427       2.561       2.089       1.678       1.174      0.6030      2.0038E-03
   7    9.995       8.320       6.652       5.035       3.614       2.706       1.993       1.327      0.6661      2.2130E-03
   8    9.996       8.430       6.897       5.447       4.161       3.126       2.258       1.475      0.7314      2.4297E-03
   9    9.996       8.508       7.059       5.692       4.455       3.379       2.437       1.583      0.7814      2.5956E-03
  10    9.996       8.548       7.138       5.806       4.587       3.497       2.525       1.639      0.8078      2.6834E-03

 HEAD WILL BE SAVED ON UNIT   51 AT END OF TIME STEP   49, STRESS PERIOD    3

 DRAWDOWN WILL BE SAVED ON UNIT   52 AT END OF TIME STEP   49, STRESS PERIOD    3
1
  VOLUMETRIC BUDGET FOR ENTIRE MODEL AT END OF TIME STEP   49, STRESS PERIOD   3
  ------------------------------------------------------------------------------

     CUMULATIVE VOLUMES      L**3       RATES FOR THIS TIME STEP      L**3/T
     ------------------                 ------------------------

           IN:                                      IN:
           ---                                      ---
             STORAGE =       30264.4551               STORAGE =           9.1910
       CONSTANT HEAD =           0.0000         CONSTANT HEAD =           0.0000
               WELLS =           0.0000                 WELLS =           0.0000
       RIVER LEAKAGE =       86163.9922         RIVER LEAKAGE =         828.0036

            TOTAL IN =      116428.4453              TOTAL IN =         837.1946

          OUT:                                     OUT:
          ----                                     ----
             STORAGE =       3.0650E-02               STORAGE =       1.2080E-04
       CONSTANT HEAD =           0.0000         CONSTANT HEAD =           0.0000
               WELLS =       24500.0000                 WELLS =         500.0000
       RIVER LEAKAGE =       91938.0078         RIVER LEAKAGE =         337.2338

           TOTAL OUT =      116438.0391             TOTAL OUT =         837.2339

            IN - OUT =          -9.5938              IN - OUT =      -3.9307E-02

 PERCENT DISCREPANCY =          -0.01     PERCENT DISCREPANCY =          -0.00






         TIME SUMMARY AT END OF TIME STEP   49 IN STRESS PERIOD    3
                    SECONDS     MINUTES      HOURS       DAYS        YEARS
                    -----------------------------------------------------------
   TIME STEP LENGTH  86400.      1440.0      24.000      1.0000     2.73785E-03
 STRESS PERIOD TIME 4.23360E+06  70560.      1176.0      49.000     0.13415    
         TOTAL TIME 1.29600E+07 2.16000E+05  3600.0      150.00     0.41068    
1

 SOLVING FOR HEAD 

 OUTPUT CONTROL FOR STRESS PERIOD    3   TIME STEP   50
    SAVE HEAD FOR ALL LAYERS
    SAVE DRAWDOWN FOR ALL LAYERS
    SAVE BUDGET
    PRINT HEAD FOR ALL LAYERS
    PRINT BUDGET
 UBDSV1 SAVING "         STORAGE" ON UNIT  53 AT TIME STEP 50, STRESS PERIOD   3
 UBDSV2 SAVING "   CONSTANT HEAD" ON UNIT  53 AT TIME STEP 50, STRESS PERIOD   3
 UBDSV1 SAVING "FLOW RIGHT FACE " ON UNIT  53 AT TIME STEP 50, STRESS PERIOD   3
 UBDSV1 SAVING "FLOW FRONT FACE " ON UNIT  53 AT TIME STEP 50, STRESS PERIOD   3
 UBDSV1 SAVING "FLOW LOWER FACE " ON UNIT  53 AT TIME STEP 50, STRESS PERIOD   3
1
              HEAD IN LAYER   1 AT END OF TIME STEP  50 IN STRESS PERIOD    3
  ---------------------------------------------------------------------------

            1           2           3           4           5           6           7           8           9          10
 ........................................................................................................................
   1    9.996       8.418       6.887       5.458       4.192       3.127       2.227       1.436      0.7060      2.3454E-03
   2    9.995       8.370       6.784       5.294       3.989       2.960       2.117       1.374      0.6791      2.2561E-03
   3    9.995       8.283       6.583       4.942       3.510       2.604       1.906       1.264      0.6333      2.1040E-03
   4    9.995       8.183       6.323       4.381       2.493       2.039       1.636       1.143      0.5871      1.9507E-03
   5    9.995       8.130       6.141       3.748     -0.3511       1.403       1.453       1.085      0.5692      1.8916E-03
   6    9.995       8.200       6.355       4.424       2.541       2.086       1.676       1.173      0.6025      2.0020E-03
   7    9.995       8.319       6.651       5.034       3.612       2.704       1.991       1.326      0.6656      2.2112E-03
   8    9.996       8.430       6.897       5.445       4.159       3.125       2.257       1.474      0.7309      2.4281E-03
   9    9.996       8.508       7.058       5.691       4.454       3.378       2.435       1.582      0.7809      2.5942E-03
  10    9.996       8.547       7.137       5.805       4.585       3.496       2.523       1.638      0.8073      2.6819E-03
1
              HEAD IN LAYER   2 AT END OF TIME STEP  50 IN STRESS PERIOD    3
  ---------------------------------------------------------------------------

            1           2           3           4           5           6           7           8           9          10
 ........................................................................................................................
   1    9.996       8.418       6.887       5.458       4.192       3.127       2.227       1.436      0.7060      2.3454E-03
   2    9.995       8.370       6.784       5.294       3.989       2.960       2.117       1.374      0.6791      2.2561E-03
   3    9.995       8.283       6.583       4.942       3.510       2.604       1.906       1.264      0.6333      2.1040E-03
   4    9.995       8.183       6.323       4.382       2.503       2.039       1.636       1.143      0.5871      1.9507E-03
   5    9.995       8.130       6.141       3.758      0.1521       1.414       1.453       1.085      0.5692      1.8916E-03
   6    9.995       8.200       6.355       4.424       2.551       2.086       1.676       1.173      0.6025      2.0020E-03
   7    9.995       8.319       6.651       5.034       3.612       2.704       1.991       1.326      0.6656      2.2112E-03
   8    9.996       8.430       6.897       5.445       4.159       3.125       2.257       1.474      0.7309      2.4281E-03
   9    9.996       8.508       7.058       5.691       4.454       3.378       2.435       1.582      0.7809      2.5942E-03
  10    9.996       8.547       7.137       5.805       4.585       3.496       2.523       1.638      0.8073      2.6819E-03
1
              HEAD IN LAYER   3 AT END OF TIME STEP  50 IN STRESS PERIOD    3
  ---------------------------------------------------------------------------

            1           2           3           4           5           6           7           8           9          10
 ........................................................................................................................
   1    9.996       8.418       6.887       5.458       4.192       3.127       2.227       1.436      0.7060      2.3454E-03
   2    9.995       8.370       6.784       5.294       3.989       2.960       2.117       1.374      0.6791      2.2561E-03
   3    9.995       8.283       6.583       4.942       3.510       2.604       1.906       1.264      0.6333      2.1040E-03
   4    9.995       8.183       6.323       4.382       2.511       2.040       1.636       1.143      0.5871      1.9507E-03
   5    9.995       8.130       6.142       3.766      0.3934       1.422       1.453       1.085      0.5692      1.8916E-03
   6    9.995       8.200       6.355       4.425       2.559       2.087       1.676       1.173      0.6025      2.0020E-03
   7    9.995       8.319       6.651       5.034       3.613       2.704       1.991       1.326      0.6656      2.2112E-03
   8    9.996       8.430       6.897       5.445       4.159       3.125       2.257       1.474      0.7309      2.4281E-03
   9    9.996       8.508       7.058       5.691       4.454       3.378       2.435       1.582      0.7809      2.5941E-03
  10    9.996       8.547       7.137       5.805       4.585       3.496       2.523       1.638      0.8073      2.6819E-03

 HEAD WILL BE SAVED ON UNIT   51 AT END OF TIME STEP   50, STRESS PERIOD    3

 DRAWDOWN WILL BE SAVED ON UNIT   52 AT END OF TIME STEP   50, STRESS PERIOD    3
1
  VOLUMETRIC BUDGET FOR ENTIRE MODEL AT END OF TIME STEP   50, STRESS PERIOD   3
  ------------------------------------------------------------------------------

     CUMULATIVE VOLUMES      L**3       RATES FOR THIS TIME STEP      L**3/T
     ------------------                 ------------------------

           IN:                                      IN:
           ---                                      ---
             STORAGE =       30273.1035               STORAGE =           8.6490
       CONSTANT HEAD =           0.0000         CONSTANT HEAD =           0.0000
               WELLS =           0.0000                 WELLS =           0.0000
       RIVER LEAKAGE =       86992.2812         RIVER LEAKAGE =         828.2881

            TOTAL IN =      117265.3828              TOTAL IN =         836.9371

          OUT:                                     OUT:
          ----                                     ----
             STORAGE =       3.0875E-02               STORAGE =       2.2563E-04
       CONSTANT HEAD =           0.0000         CONSTANT HEAD =           0.0000
               WELLS =       25000.0000                 WELLS =         500.0000
       RIVER LEAKAGE =       92274.9844         RIVER LEAKAGE =         336.9773

           TOTAL OUT =      117275.0156             TOTAL OUT =         836.9775

            IN - OUT =          -9.6328              IN - OUT =      -4.0405E-02

 PERCENT DISCREPANCY =          -0.01     PERCENT DISCREPANCY =          -0.00






         TIME SUMMARY AT END OF TIME STEP   50 IN STRESS PERIOD    3
                    SECONDS     MINUTES      HOURS       DAYS        YEARS
                    -----------------------------------------------------------
   TIME STEP LENGTH  86400.      1440.0      24.000      1.0000     2.73785E-03
 STRESS PERIOD TIME 4.32000E+06  72000.      1200.0      50.000     0.13689    
         TOTAL TIME 1.30464E+07 2.17440E+05  3624.0      151.00     0.41342    
1

 SOLVING FOR HEAD 

 OUTPUT CONTROL FOR STRESS PERIOD    3   TIME STEP   51
    SAVE HEAD FOR ALL LAYERS
    SAVE DRAWDOWN FOR ALL LAYERS
    SAVE BUDGET
    PRINT HEAD FOR ALL LAYERS
    PRINT BUDGET
 UBDSV1 SAVING "         STORAGE" ON UNIT  53 AT TIME STEP 51, STRESS PERIOD   3
 UBDSV2 SAVING "   CONSTANT HEAD" ON UNIT  53 AT TIME STEP 51, STRESS PERIOD   3
 UBDSV1 SAVING "FLOW RIGHT FACE " ON UNIT  53 AT TIME STEP 51, STRESS PERIOD   3
 UBDSV1 SAVING "FLOW FRONT FACE " ON UNIT  53 AT TIME STEP 51, STRESS PERIOD   3
 UBDSV1 SAVING "FLOW LOWER FACE " ON UNIT  53 AT TIME STEP 51, STRESS PERIOD   3
1
              HEAD IN LAYER   1 AT END OF TIME STEP  51 IN STRESS PERIOD    3
  ---------------------------------------------------------------------------

            1           2           3           4           5           6           7           8           9          10
 ........................................................................................................................
   1    9.996       8.417       6.886       5.456       4.190       3.125       2.226       1.435      0.7056      2.3438E-03
   2    9.995       8.370       6.783       5.292       3.988       2.958       2.116       1.373      0.6787      2.2544E-03
   3    9.995       8.282       6.582       4.941       3.508       2.602       1.904       1.263      0.6328      2.1023E-03
   4    9.995       8.182       6.321       4.379       2.490       2.037       1.634       1.142      0.5865      1.9489E-03
   5    9.995       8.129       6.140       3.746     -0.3546       1.401       1.451       1.084      0.5687      1.8898E-03
   6    9.995       8.199       6.353       4.422       2.539       2.084       1.675       1.172      0.6020      2.0002E-03
   7    9.995       8.319       6.650       5.032       3.610       2.702       1.990       1.325      0.6651      2.2096E-03
   8    9.996       8.429       6.896       5.444       4.158       3.124       2.256       1.473      0.7305      2.4266E-03
   9    9.996       8.507       7.057       5.690       4.452       3.377       2.434       1.582      0.7805      2.5928E-03
  10    9.996       8.547       7.136       5.804       4.584       3.495       2.522       1.637      0.8069      2.6806E-03
1
              HEAD IN LAYER   2 AT END OF TIME STEP  51 IN STRESS PERIOD    3
  ---------------------------------------------------------------------------

            1           2           3           4           5           6           7           8           9          10
 ........................................................................................................................
   1    9.996       8.417       6.886       5.456       4.190       3.125       2.226       1.435      0.7056      2.3438E-03
   2    9.995       8.370       6.783       5.292       3.988       2.958       2.116       1.373      0.6787      2.2545E-03
   3    9.995       8.282       6.582       4.941       3.508       2.602       1.904       1.263      0.6328      2.1023E-03
   4    9.995       8.182       6.321       4.380       2.500       2.037       1.634       1.142      0.5865      1.9489E-03
   5    9.995       8.129       6.140       3.756      0.1487       1.411       1.451       1.084      0.5687      1.8898E-03
   6    9.995       8.199       6.353       4.423       2.549       2.084       1.675       1.172      0.6020      2.0002E-03
   7    9.995       8.319       6.650       5.032       3.611       2.702       1.990       1.325      0.6651      2.2096E-03
   8    9.996       8.429       6.896       5.444       4.158       3.124       2.256       1.473      0.7305      2.4266E-03
   9    9.996       8.507       7.057       5.690       4.452       3.377       2.434       1.582      0.7805      2.5928E-03
  10    9.996       8.547       7.136       5.804       4.584       3.495       2.522       1.637      0.8069      2.6806E-03
1
              HEAD IN LAYER   3 AT END OF TIME STEP  51 IN STRESS PERIOD    3
  ---------------------------------------------------------------------------

            1           2           3           4           5           6           7           8           9          10
 ........................................................................................................................
   1    9.996       8.417       6.886       5.456       4.190       3.125       2.226       1.435      0.7056      2.3438E-03
   2    9.995       8.370       6.783       5.292       3.988       2.958       2.116       1.373      0.6787      2.2544E-03
   3    9.995       8.282       6.582       4.941       3.508       2.602       1.904       1.263      0.6328      2.1023E-03
   4    9.995       8.182       6.321       4.380       2.508       2.038       1.634       1.142      0.5865      1.9489E-03
   5    9.995       8.129       6.140       3.764      0.3901       1.419       1.451       1.084      0.5687      1.8898E-03
   6    9.995       8.199       6.353       4.423       2.556       2.085       1.675       1.172      0.6020      2.0002E-03
   7    9.995       8.319       6.650       5.032       3.611       2.702       1.990       1.325      0.6651      2.2096E-03
   8    9.996       8.429       6.896       5.444       4.158       3.124       2.256       1.473      0.7305      2.4266E-03
   9    9.996       8.507       7.057       5.690       4.452       3.377       2.434       1.582      0.7805      2.5928E-03
  10    9.996       8.547       7.136       5.804       4.584       3.495       2.522       1.637      0.8069      2.6806E-03

 HEAD WILL BE SAVED ON UNIT   51 AT END OF TIME STEP   51, STRESS PERIOD    3

 DRAWDOWN WILL BE SAVED ON UNIT   52 AT END OF TIME STEP   51, STRESS PERIOD    3
1
  VOLUMETRIC BUDGET FOR ENTIRE MODEL AT END OF TIME STEP   51, STRESS PERIOD   3
  ------------------------------------------------------------------------------

     CUMULATIVE VOLUMES      L**3       RATES FOR THIS TIME STEP      L**3/T
     ------------------                 ------------------------

           IN:                                      IN:
           ---                                      ---
             STORAGE =       30281.2441               STORAGE =           8.1402
       CONSTANT HEAD =           0.0000         CONSTANT HEAD =           0.0000
               WELLS =           0.0000                 WELLS =           0.0000
       RIVER LEAKAGE =       87820.8359         RIVER LEAKAGE =         828.5557

            TOTAL IN =      118102.0781              TOTAL IN =         836.6959

          OUT:                                     OUT:
          ----                                     ----
             STORAGE =       3.1046E-02               STORAGE =       1.7026E-04
       CONSTANT HEAD =           0.0000         CONSTANT HEAD =           0.0000
               WELLS =       25500.0000                 WELLS =         500.0000
       RIVER LEAKAGE =       92611.7188         RIVER LEAKAGE =         336.7368

           TOTAL OUT =      118111.7500             TOTAL OUT =         836.7369

            IN - OUT =          -9.6719              IN - OUT =      -4.1077E-02

 PERCENT DISCREPANCY =          -0.01     PERCENT DISCREPANCY =          -0.00






         TIME SUMMARY AT END OF TIME STEP   51 IN STRESS PERIOD    3
                    SECONDS     MINUTES      HOURS       DAYS        YEARS
                    -----------------------------------------------------------
   TIME STEP LENGTH  86400.      1440.0      24.000      1.0000     2.73785E-03
 STRESS PERIOD TIME 4.40640E+06  73440.      1224.0      51.000     0.13963    
         TOTAL TIME 1.31328E+07 2.18880E+05  3648.0      152.00     0.41615    
1

 SOLVING FOR HEAD 

 OUTPUT CONTROL FOR STRESS PERIOD    3   TIME STEP   52
    SAVE HEAD FOR ALL LAYERS
    SAVE DRAWDOWN FOR ALL LAYERS
    SAVE BUDGET
    PRINT HEAD FOR ALL LAYERS
    PRINT BUDGET
 UBDSV1 SAVING "         STORAGE" ON UNIT  53 AT TIME STEP 52, STRESS PERIOD   3
 UBDSV2 SAVING "   CONSTANT HEAD" ON UNIT  53 AT TIME STEP 52, STRESS PERIOD   3
 UBDSV1 SAVING "FLOW RIGHT FACE " ON UNIT  53 AT TIME STEP 52, STRESS PERIOD   3
 UBDSV1 SAVING "FLOW FRONT FACE " ON UNIT  53 AT TIME STEP 52, STRESS PERIOD   3
 UBDSV1 SAVING "FLOW LOWER FACE " ON UNIT  53 AT TIME STEP 52, STRESS PERIOD   3
1
              HEAD IN LAYER   1 AT END OF TIME STEP  52 IN STRESS PERIOD    3
  ---------------------------------------------------------------------------

            1           2           3           4           5           6           7           8           9          10
 ........................................................................................................................
   1    9.996       8.417       6.885       5.455       4.189       3.124       2.225       1.434      0.7051      2.3423E-03
   2    9.995       8.369       6.782       5.291       3.986       2.957       2.114       1.373      0.6782      2.2529E-03
   3    9.995       8.282       6.581       4.939       3.506       2.601       1.903       1.262      0.6323      2.1007E-03
   4    9.995       8.182       6.320       4.378       2.488       2.035       1.633       1.141      0.5860      1.9473E-03
   5    9.995       8.129       6.139       3.744     -0.3580       1.399       1.449       1.083      0.5681      1.8881E-03
   6    9.995       8.199       6.352       4.420       2.537       2.082       1.673       1.171      0.6015      1.9986E-03
   7    9.995       8.318       6.649       5.031       3.609       2.701       1.989       1.324      0.6646      2.2081E-03
   8    9.996       8.429       6.895       5.443       4.157       3.122       2.254       1.473      0.7300      2.4252E-03
   9    9.996       8.507       7.057       5.689       4.451       3.375       2.433       1.581      0.7801      2.5914E-03
  10    9.996       8.546       7.135       5.803       4.583       3.494       2.521       1.637      0.8066      2.6793E-03
1
              HEAD IN LAYER   2 AT END OF TIME STEP  52 IN STRESS PERIOD    3
  ---------------------------------------------------------------------------

            1           2           3           4           5           6           7           8           9          10
 ........................................................................................................................
   1    9.996       8.417       6.885       5.455       4.189       3.124       2.225       1.434      0.7051      2.3423E-03
   2    9.995       8.369       6.782       5.291       3.986       2.957       2.114       1.373      0.6782      2.2529E-03
   3    9.995       8.282       6.581       4.939       3.506       2.601       1.903       1.262      0.6323      2.1007E-03
   4    9.995       8.182       6.320       4.378       2.498       2.035       1.633       1.141      0.5860      1.9473E-03
   5    9.995       8.129       6.139       3.754      0.1455       1.409       1.450       1.083      0.5681      1.8881E-03
   6    9.995       8.199       6.352       4.421       2.547       2.083       1.673       1.171      0.6015      1.9986E-03
   7    9.995       8.318       6.649       5.031       3.609       2.701       1.989       1.324      0.6646      2.2081E-03
   8    9.996       8.429       6.895       5.443       4.157       3.122       2.254       1.473      0.7300      2.4252E-03
   9    9.996       8.507       7.057       5.689       4.451       3.375       2.433       1.581      0.7801      2.5914E-03
  10    9.996       8.546       7.135       5.803       4.583       3.494       2.521       1.637      0.8066      2.6793E-03
1
              HEAD IN LAYER   3 AT END OF TIME STEP  52 IN STRESS PERIOD    3
  ---------------------------------------------------------------------------

            1           2           3           4           5           6           7           8           9          10
 ........................................................................................................................
   1    9.996       8.417       6.885       5.455       4.189       3.124       2.225       1.434      0.7051      2.3423E-03
   2    9.995       8.369       6.782       5.291       3.986       2.957       2.114       1.373      0.6782      2.2529E-03
   3    9.995       8.282       6.581       4.939       3.507       2.601       1.903       1.262      0.6323      2.1007E-03
   4    9.995       8.182       6.320       4.378       2.506       2.036       1.633       1.141      0.5860      1.9473E-03
   5    9.995       8.129       6.139       3.762      0.3870       1.417       1.450       1.083      0.5681      1.8881E-03
   6    9.995       8.199       6.352       4.421       2.554       2.083       1.673       1.171      0.6015      1.9986E-03
   7    9.995       8.318       6.649       5.031       3.609       2.701       1.989       1.324      0.6646      2.2081E-03
   8    9.996       8.429       6.895       5.443       4.157       3.122       2.254       1.473      0.7300      2.4252E-03
   9    9.996       8.507       7.057       5.689       4.451       3.375       2.433       1.581      0.7801      2.5914E-03
  10    9.996       8.546       7.135       5.803       4.583       3.494       2.521       1.637      0.8066      2.6793E-03

 HEAD WILL BE SAVED ON UNIT   51 AT END OF TIME STEP   52, STRESS PERIOD    3

 DRAWDOWN WILL BE SAVED ON UNIT   52 AT END OF TIME STEP   52, STRESS PERIOD    3
1
  VOLUMETRIC BUDGET FOR ENTIRE MODEL AT END OF TIME STEP   52, STRESS PERIOD   3
  ------------------------------------------------------------------------------

     CUMULATIVE VOLUMES      L**3       RATES FOR THIS TIME STEP      L**3/T
     ------------------                 ------------------------

           IN:                                      IN:
           ---                                      ---
             STORAGE =       30288.9062               STORAGE =           7.6621
       CONSTANT HEAD =           0.0000         CONSTANT HEAD =           0.0000
               WELLS =           0.0000                 WELLS =           0.0000
       RIVER LEAKAGE =       88649.6484         RIVER LEAKAGE =         828.8109

            TOTAL IN =      118938.5547              TOTAL IN =         836.4730

          OUT:                                     OUT:
          ----                                     ----
             STORAGE =       3.1282E-02               STORAGE =       2.3676E-04
       CONSTANT HEAD =           0.0000         CONSTANT HEAD =           0.0000
               WELLS =       26000.0000                 WELLS =         500.0000
       RIVER LEAKAGE =       92948.2266         RIVER LEAKAGE =         336.5106

           TOTAL OUT =      118948.2578             TOTAL OUT =         836.5109

            IN - OUT =          -9.7031              IN - OUT =      -3.7842E-02

 PERCENT DISCREPANCY =          -0.01     PERCENT DISCREPANCY =          -0.00






         TIME SUMMARY AT END OF TIME STEP   52 IN STRESS PERIOD    3
                    SECONDS     MINUTES      HOURS       DAYS        YEARS
                    -----------------------------------------------------------
   TIME STEP LENGTH  86400.      1440.0      24.000      1.0000     2.73785E-03
 STRESS PERIOD TIME 4.49280E+06  74880.      1248.0      52.000     0.14237    
         TOTAL TIME 1.32192E+07 2.20320E+05  3672.0      153.00     0.41889    
1

 SOLVING FOR HEAD 

 OUTPUT CONTROL FOR STRESS PERIOD    3   TIME STEP   53
    SAVE HEAD FOR ALL LAYERS
    SAVE DRAWDOWN FOR ALL LAYERS
    SAVE BUDGET
    PRINT HEAD FOR ALL LAYERS
    PRINT BUDGET
 UBDSV1 SAVING "         STORAGE" ON UNIT  53 AT TIME STEP 53, STRESS PERIOD   3
 UBDSV2 SAVING "   CONSTANT HEAD" ON UNIT  53 AT TIME STEP 53, STRESS PERIOD   3
 UBDSV1 SAVING "FLOW RIGHT FACE " ON UNIT  53 AT TIME STEP 53, STRESS PERIOD   3
 UBDSV1 SAVING "FLOW FRONT FACE " ON UNIT  53 AT TIME STEP 53, STRESS PERIOD   3
 UBDSV1 SAVING "FLOW LOWER FACE " ON UNIT  53 AT TIME STEP 53, STRESS PERIOD   3
1
              HEAD IN LAYER   1 AT END OF TIME STEP  53 IN STRESS PERIOD    3
  ---------------------------------------------------------------------------

            1           2           3           4           5           6           7           8           9          10
 ........................................................................................................................
   1    9.996       8.416       6.884       5.454       4.188       3.123       2.224       1.434      0.7047      2.3409E-03
   2    9.995       8.369       6.781       5.290       3.985       2.955       2.113       1.372      0.6778      2.2515E-03
   3    9.995       8.281       6.580       4.938       3.505       2.599       1.902       1.262      0.6319      2.0992E-03
   4    9.995       8.181       6.319       4.376       2.486       2.033       1.631       1.140      0.5856      1.9457E-03
   5    9.995       8.128       6.137       3.742     -0.3612       1.397       1.448       1.082      0.5677      1.8865E-03
   6    9.995       8.198       6.351       4.419       2.535       2.080       1.672       1.170      0.6010      1.9971E-03
   7    9.995       8.318       6.648       5.030       3.607       2.700       1.987       1.324      0.6642      2.2067E-03
   8    9.996       8.429       6.894       5.442       4.155       3.121       2.253       1.472      0.7297      2.4239E-03
   9    9.996       8.507       7.056       5.688       4.450       3.374       2.432       1.580      0.7797      2.5902E-03
  10    9.996       8.546       7.135       5.802       4.582       3.493       2.521       1.636      0.8062      2.6781E-03
1
              HEAD IN LAYER   2 AT END OF TIME STEP  53 IN STRESS PERIOD    3
  ---------------------------------------------------------------------------

            1           2           3           4           5           6           7           8           9          10
 ........................................................................................................................
   1    9.996       8.416       6.884       5.454       4.188       3.123       2.224       1.434      0.7047      2.3409E-03
   2    9.995       8.369       6.781       5.290       3.985       2.955       2.113       1.372      0.6778      2.2515E-03
   3    9.995       8.281       6.580       4.938       3.505       2.599       1.902       1.262      0.6319      2.0992E-03
   4    9.995       8.181       6.319       4.376       2.496       2.034       1.631       1.140      0.5856      1.9457E-03
   5    9.995       8.128       6.138       3.752      0.1425       1.407       1.448       1.082      0.5677      1.8865E-03
   6    9.995       8.198       6.351       4.419       2.545       2.081       1.672       1.170      0.6010      1.9971E-03
   7    9.995       8.318       6.648       5.030       3.607       2.700       1.987       1.324      0.6642      2.2067E-03
   8    9.996       8.429       6.894       5.442       4.155       3.121       2.253       1.472      0.7297      2.4239E-03
   9    9.996       8.507       7.056       5.688       4.450       3.374       2.432       1.580      0.7797      2.5902E-03
  10    9.996       8.546       7.135       5.802       4.582       3.493       2.521       1.636      0.8062      2.6781E-03
1
              HEAD IN LAYER   3 AT END OF TIME STEP  53 IN STRESS PERIOD    3
  ---------------------------------------------------------------------------

            1           2           3           4           5           6           7           8           9          10
 ........................................................................................................................
   1    9.996       8.416       6.884       5.454       4.188       3.123       2.224       1.434      0.7047      2.3409E-03
   2    9.995       8.369       6.781       5.290       3.985       2.955       2.113       1.372      0.6778      2.2515E-03
   3    9.995       8.281       6.580       4.938       3.505       2.599       1.902       1.262      0.6319      2.0993E-03
   4    9.995       8.181       6.319       4.377       2.504       2.034       1.631       1.140      0.5856      1.9457E-03
   5    9.995       8.128       6.138       3.760      0.3841       1.415       1.448       1.082      0.5677      1.8865E-03
   6    9.995       8.198       6.351       4.420       2.552       2.081       1.672       1.170      0.6010      1.9971E-03
   7    9.995       8.318       6.648       5.030       3.608       2.700       1.987       1.324      0.6642      2.2067E-03
   8    9.996       8.429       6.894       5.442       4.155       3.121       2.253       1.472      0.7297      2.4239E-03
   9    9.996       8.507       7.056       5.688       4.450       3.374       2.432       1.580      0.7797      2.5902E-03
  10    9.996       8.546       7.135       5.802       4.582       3.493       2.521       1.636      0.8062      2.6781E-03

 HEAD WILL BE SAVED ON UNIT   51 AT END OF TIME STEP   53, STRESS PERIOD    3

 DRAWDOWN WILL BE SAVED ON UNIT   52 AT END OF TIME STEP   53, STRESS PERIOD    3
1
  VOLUMETRIC BUDGET FOR ENTIRE MODEL AT END OF TIME STEP   53, STRESS PERIOD   3
  ------------------------------------------------------------------------------

     CUMULATIVE VOLUMES      L**3       RATES FOR THIS TIME STEP      L**3/T
     ------------------                 ------------------------

           IN:                                      IN:
           ---                                      ---
             STORAGE =       30296.1191               STORAGE =           7.2129
       CONSTANT HEAD =           0.0000         CONSTANT HEAD =           0.0000
               WELLS =           0.0000                 WELLS =           0.0000
       RIVER LEAKAGE =       89478.7031         RIVER LEAKAGE =         829.0510

            TOTAL IN =      119774.8203              TOTAL IN =         836.2640

          OUT:                                     OUT:
          ----                                     ----
             STORAGE =       3.1472E-02               STORAGE =       1.8979E-04
       CONSTANT HEAD =           0.0000         CONSTANT HEAD =           0.0000
               WELLS =       26500.0000                 WELLS =         500.0000
       RIVER LEAKAGE =       93284.5234         RIVER LEAKAGE =         336.2985

           TOTAL OUT =      119784.5547             TOTAL OUT =         836.2987

            IN - OUT =          -9.7344              IN - OUT =      -3.4729E-02

 PERCENT DISCREPANCY =          -0.01     PERCENT DISCREPANCY =          -0.00






         TIME SUMMARY AT END OF TIME STEP   53 IN STRESS PERIOD    3
                    SECONDS     MINUTES      HOURS       DAYS        YEARS
                    -----------------------------------------------------------
   TIME STEP LENGTH  86400.      1440.0      24.000      1.0000     2.73785E-03
 STRESS PERIOD TIME 4.57920E+06  76320.      1272.0      53.000     0.14511    
         TOTAL TIME 1.33056E+07 2.21760E+05  3696.0      154.00     0.42163    
1

 SOLVING FOR HEAD 

 OUTPUT CONTROL FOR STRESS PERIOD    3   TIME STEP   54
    SAVE HEAD FOR ALL LAYERS
    SAVE DRAWDOWN FOR ALL LAYERS
    SAVE BUDGET
    PRINT HEAD FOR ALL LAYERS
    PRINT BUDGET
 UBDSV1 SAVING "         STORAGE" ON UNIT  53 AT TIME STEP 54, STRESS PERIOD   3
 UBDSV2 SAVING "   CONSTANT HEAD" ON UNIT  53 AT TIME STEP 54, STRESS PERIOD   3
 UBDSV1 SAVING "FLOW RIGHT FACE " ON UNIT  53 AT TIME STEP 54, STRESS PERIOD   3
 UBDSV1 SAVING "FLOW FRONT FACE " ON UNIT  53 AT TIME STEP 54, STRESS PERIOD   3
 UBDSV1 SAVING "FLOW LOWER FACE " ON UNIT  53 AT TIME STEP 54, STRESS PERIOD   3
1
              HEAD IN LAYER   1 AT END OF TIME STEP  54 IN STRESS PERIOD    3
  ---------------------------------------------------------------------------

            1           2           3           4           5           6           7           8           9          10
 ........................................................................................................................
   1    9.996       8.416       6.883       5.453       4.186       3.121       2.223       1.433      0.7043      2.3396E-03
   2    9.995       8.368       6.780       5.289       3.983       2.954       2.112       1.371      0.6774      2.2502E-03
   3    9.995       8.281       6.579       4.937       3.503       2.598       1.901       1.261      0.6314      2.0978E-03
   4    9.995       8.180       6.318       4.374       2.484       2.031       1.630       1.139      0.5851      1.9442E-03
   5    9.995       8.128       6.136       3.741     -0.3642       1.395       1.447       1.081      0.5672      1.8850E-03
   6    9.995       8.198       6.350       4.417       2.533       2.079       1.671       1.169      0.6006      1.9956E-03
   7    9.995       8.317       6.647       5.028       3.606       2.698       1.986       1.323      0.6638      2.2053E-03
   8    9.996       8.428       6.893       5.441       4.154       3.120       2.252       1.471      0.7293      2.4227E-03
   9    9.996       8.506       7.055       5.687       4.449       3.373       2.431       1.579      0.7794      2.5891E-03
  10    9.996       8.546       7.134       5.801       4.581       3.492       2.520       1.635      0.8059      2.6770E-03
1
              HEAD IN LAYER   2 AT END OF TIME STEP  54 IN STRESS PERIOD    3
  ---------------------------------------------------------------------------

            1           2           3           4           5           6           7           8           9          10
 ........................................................................................................................
   1    9.996       8.416       6.883       5.453       4.186       3.121       2.223       1.433      0.7043      2.3396E-03
   2    9.995       8.368       6.780       5.289       3.983       2.954       2.112       1.371      0.6774      2.2502E-03
   3    9.995       8.281       6.579       4.937       3.503       2.598       1.901       1.261      0.6314      2.0978E-03
   4    9.995       8.180       6.318       4.375       2.494       2.032       1.630       1.139      0.5851      1.9442E-03
   5    9.995       8.128       6.137       3.750      0.1397       1.405       1.447       1.081      0.5672      1.8850E-03
   6    9.995       8.198       6.350       4.418       2.543       2.079       1.671       1.169      0.6006      1.9956E-03
   7    9.995       8.317       6.647       5.028       3.606       2.698       1.986       1.323      0.6638      2.2053E-03
   8    9.996       8.428       6.893       5.441       4.154       3.120       2.252       1.471      0.7293      2.4227E-03
   9    9.996       8.506       7.055       5.687       4.449       3.373       2.431       1.579      0.7794      2.5891E-03
  10    9.996       8.546       7.134       5.801       4.581       3.492       2.520       1.635      0.8059      2.6770E-03
1
              HEAD IN LAYER   3 AT END OF TIME STEP  54 IN STRESS PERIOD    3
  ---------------------------------------------------------------------------

            1           2           3           4           5           6           7           8           9          10
 ........................................................................................................................
   1    9.996       8.416       6.883       5.453       4.186       3.121       2.223       1.433      0.7043      2.3396E-03
   2    9.995       8.368       6.780       5.289       3.983       2.954       2.112       1.371      0.6774      2.2502E-03
   3    9.995       8.281       6.579       4.937       3.504       2.598       1.901       1.261      0.6314      2.0978E-03
   4    9.995       8.180       6.318       4.375       2.502       2.032       1.630       1.139      0.5851      1.9442E-03
   5    9.995       8.128       6.137       3.758      0.3814       1.413       1.447       1.081      0.5672      1.8850E-03
   6    9.995       8.198       6.350       4.418       2.551       2.080       1.671       1.169      0.6006      1.9956E-03
   7    9.995       8.317       6.647       5.028       3.606       2.698       1.986       1.323      0.6638      2.2053E-03
   8    9.996       8.428       6.893       5.441       4.154       3.120       2.252       1.471      0.7293      2.4227E-03
   9    9.996       8.506       7.055       5.687       4.449       3.373       2.431       1.579      0.7794      2.5891E-03
  10    9.996       8.546       7.134       5.801       4.581       3.492       2.520       1.635      0.8059      2.6770E-03

 HEAD WILL BE SAVED ON UNIT   51 AT END OF TIME STEP   54, STRESS PERIOD    3

 DRAWDOWN WILL BE SAVED ON UNIT   52 AT END OF TIME STEP   54, STRESS PERIOD    3
1
  VOLUMETRIC BUDGET FOR ENTIRE MODEL AT END OF TIME STEP   54, STRESS PERIOD   3
  ------------------------------------------------------------------------------

     CUMULATIVE VOLUMES      L**3       RATES FOR THIS TIME STEP      L**3/T
     ------------------                 ------------------------

           IN:                                      IN:
           ---                                      ---
             STORAGE =       30302.9102               STORAGE =           6.7907
       CONSTANT HEAD =           0.0000         CONSTANT HEAD =           0.0000
               WELLS =           0.0000                 WELLS =           0.0000
       RIVER LEAKAGE =       90307.9766         RIVER LEAKAGE =         829.2732

            TOTAL IN =      120610.8906              TOTAL IN =         836.0638

          OUT:                                     OUT:
          ----                                     ----
             STORAGE =       3.1653E-02               STORAGE =       1.8034E-04
       CONSTANT HEAD =           0.0000         CONSTANT HEAD =           0.0000
               WELLS =       27000.0000                 WELLS =         500.0000
       RIVER LEAKAGE =       93620.6250         RIVER LEAKAGE =         336.0991

           TOTAL OUT =      120620.6562             TOTAL OUT =         836.0992

            IN - OUT =          -9.7656              IN - OUT =      -3.5400E-02

 PERCENT DISCREPANCY =          -0.01     PERCENT DISCREPANCY =          -0.00






         TIME SUMMARY AT END OF TIME STEP   54 IN STRESS PERIOD    3
                    SECONDS     MINUTES      HOURS       DAYS        YEARS
                    -----------------------------------------------------------
   TIME STEP LENGTH  86400.      1440.0      24.000      1.0000     2.73785E-03
 STRESS PERIOD TIME 4.66560E+06  77760.      1296.0      54.000     0.14784    
         TOTAL TIME 1.33920E+07 2.23200E+05  3720.0      155.00     0.42437    
1

 SOLVING FOR HEAD 

 OUTPUT CONTROL FOR STRESS PERIOD    3   TIME STEP   55
    SAVE HEAD FOR ALL LAYERS
    SAVE DRAWDOWN FOR ALL LAYERS
    SAVE BUDGET
    PRINT HEAD FOR ALL LAYERS
    PRINT BUDGET
 UBDSV1 SAVING "         STORAGE" ON UNIT  53 AT TIME STEP 55, STRESS PERIOD   3
 UBDSV2 SAVING "   CONSTANT HEAD" ON UNIT  53 AT TIME STEP 55, STRESS PERIOD   3
 UBDSV1 SAVING "FLOW RIGHT FACE " ON UNIT  53 AT TIME STEP 55, STRESS PERIOD   3
 UBDSV1 SAVING "FLOW FRONT FACE " ON UNIT  53 AT TIME STEP 55, STRESS PERIOD   3
 UBDSV1 SAVING "FLOW LOWER FACE " ON UNIT  53 AT TIME STEP 55, STRESS PERIOD   3
1
              HEAD IN LAYER   1 AT END OF TIME STEP  55 IN STRESS PERIOD    3
  ---------------------------------------------------------------------------

            1           2           3           4           5           6           7           8           9          10
 ........................................................................................................................
   1    9.996       8.415       6.882       5.452       4.185       3.120       2.222       1.432      0.7040      2.3384E-03
   2    9.995       8.368       6.779       5.288       3.982       2.953       2.111       1.370      0.6770      2.2489E-03
   3    9.995       8.280       6.578       4.936       3.502       2.596       1.899       1.260      0.6311      2.0965E-03
   4    9.995       8.180       6.317       4.373       2.483       2.030       1.629       1.139      0.5847      1.9428E-03
   5    9.995       8.127       6.135       3.739     -0.3670       1.393       1.445       1.080      0.5668      1.8836E-03
   6    9.995       8.197       6.349       4.416       2.531       2.077       1.669       1.168      0.6002      1.9943E-03
   7    9.995       8.317       6.647       5.027       3.604       2.697       1.985       1.322      0.6634      2.2041E-03
   8    9.996       8.428       6.892       5.440       4.153       3.119       2.251       1.470      0.7289      2.4215E-03
   9    9.996       8.506       7.055       5.686       4.448       3.372       2.431       1.579      0.7791      2.5880E-03
  10    9.996       8.545       7.133       5.800       4.580       3.491       2.519       1.635      0.8056      2.6760E-03
1
              HEAD IN LAYER   2 AT END OF TIME STEP  55 IN STRESS PERIOD    3
  ---------------------------------------------------------------------------

            1           2           3           4           5           6           7           8           9          10
 ........................................................................................................................
   1    9.996       8.415       6.882       5.452       4.185       3.120       2.222       1.432      0.7040      2.3384E-03
   2    9.995       8.368       6.779       5.288       3.982       2.953       2.111       1.370      0.6770      2.2489E-03
   3    9.995       8.280       6.578       4.936       3.502       2.596       1.899       1.260      0.6311      2.0965E-03
   4    9.995       8.180       6.317       4.374       2.493       2.030       1.629       1.139      0.5847      1.9428E-03
   5    9.995       8.127       6.136       3.749      0.1370       1.404       1.446       1.080      0.5668      1.8836E-03
   6    9.995       8.197       6.349       4.417       2.541       2.078       1.669       1.168      0.6002      1.9943E-03
   7    9.995       8.317       6.647       5.027       3.605       2.697       1.985       1.322      0.6634      2.2041E-03
   8    9.996       8.428       6.892       5.440       4.153       3.119       2.251       1.470      0.7289      2.4215E-03
   9    9.996       8.506       7.055       5.686       4.448       3.372       2.431       1.579      0.7791      2.5880E-03
  10    9.996       8.545       7.133       5.800       4.580       3.491       2.519       1.635      0.8056      2.6760E-03
1
              HEAD IN LAYER   3 AT END OF TIME STEP  55 IN STRESS PERIOD    3
  ---------------------------------------------------------------------------

            1           2           3           4           5           6           7           8           9          10
 ........................................................................................................................
   1    9.996       8.415       6.882       5.452       4.185       3.120       2.222       1.432      0.7040      2.3384E-03
   2    9.995       8.368       6.779       5.288       3.982       2.953       2.111       1.370      0.6770      2.2489E-03
   3    9.995       8.280       6.578       4.936       3.502       2.596       1.899       1.260      0.6311      2.0965E-03
   4    9.995       8.180       6.317       4.374       2.501       2.031       1.629       1.139      0.5847      1.9428E-03
   5    9.995       8.127       6.136       3.756      0.3788       1.412       1.446       1.080      0.5668      1.8836E-03
   6    9.995       8.197       6.349       4.417       2.549       2.078       1.669       1.168      0.6002      1.9943E-03
   7    9.995       8.317       6.647       5.027       3.605       2.697       1.985       1.322      0.6634      2.2041E-03
   8    9.996       8.428       6.892       5.440       4.153       3.119       2.251       1.470      0.7289      2.4215E-03
   9    9.996       8.506       7.055       5.686       4.448       3.372       2.431       1.579      0.7791      2.5880E-03
  10    9.996       8.545       7.133       5.800       4.580       3.491       2.519       1.635      0.8056      2.6760E-03

 HEAD WILL BE SAVED ON UNIT   51 AT END OF TIME STEP   55, STRESS PERIOD    3

 DRAWDOWN WILL BE SAVED ON UNIT   52 AT END OF TIME STEP   55, STRESS PERIOD    3
1
  VOLUMETRIC BUDGET FOR ENTIRE MODEL AT END OF TIME STEP   55, STRESS PERIOD   3
  ------------------------------------------------------------------------------

     CUMULATIVE VOLUMES      L**3       RATES FOR THIS TIME STEP      L**3/T
     ------------------                 ------------------------

           IN:                                      IN:
           ---                                      ---
             STORAGE =       30309.3047               STORAGE =           6.3936
       CONSTANT HEAD =           0.0000         CONSTANT HEAD =           0.0000
               WELLS =           0.0000                 WELLS =           0.0000
       RIVER LEAKAGE =       91137.4609         RIVER LEAKAGE =         829.4822

            TOTAL IN =      121446.7656              TOTAL IN =         835.8758

          OUT:                                     OUT:
          ----                                     ----
             STORAGE =       3.1808E-02               STORAGE =       1.5531E-04
       CONSTANT HEAD =           0.0000         CONSTANT HEAD =           0.0000
               WELLS =       27500.0000                 WELLS =         500.0000
       RIVER LEAKAGE =       93956.5391         RIVER LEAKAGE =         335.9116

           TOTAL OUT =      121456.5703             TOTAL OUT =         835.9117

            IN - OUT =          -9.8047              IN - OUT =      -3.5950E-02

 PERCENT DISCREPANCY =          -0.01     PERCENT DISCREPANCY =          -0.00






         TIME SUMMARY AT END OF TIME STEP   55 IN STRESS PERIOD    3
                    SECONDS     MINUTES      HOURS       DAYS        YEARS
                    -----------------------------------------------------------
   TIME STEP LENGTH  86400.      1440.0      24.000      1.0000     2.73785E-03
 STRESS PERIOD TIME 4.75200E+06  79200.      1320.0      55.000     0.15058    
         TOTAL TIME 1.34784E+07 2.24640E+05  3744.0      156.00     0.42710    
1

 SOLVING FOR HEAD 

 OUTPUT CONTROL FOR STRESS PERIOD    3   TIME STEP   56
    SAVE HEAD FOR ALL LAYERS
    SAVE DRAWDOWN FOR ALL LAYERS
    SAVE BUDGET
    PRINT HEAD FOR ALL LAYERS
    PRINT BUDGET
 UBDSV1 SAVING "         STORAGE" ON UNIT  53 AT TIME STEP 56, STRESS PERIOD   3
 UBDSV2 SAVING "   CONSTANT HEAD" ON UNIT  53 AT TIME STEP 56, STRESS PERIOD   3
 UBDSV1 SAVING "FLOW RIGHT FACE " ON UNIT  53 AT TIME STEP 56, STRESS PERIOD   3
 UBDSV1 SAVING "FLOW FRONT FACE " ON UNIT  53 AT TIME STEP 56, STRESS PERIOD   3
 UBDSV1 SAVING "FLOW LOWER FACE " ON UNIT  53 AT TIME STEP 56, STRESS PERIOD   3
1
              HEAD IN LAYER   1 AT END OF TIME STEP  56 IN STRESS PERIOD    3
  ---------------------------------------------------------------------------

            1           2           3           4           5           6           7           8           9          10
 ........................................................................................................................
   1    9.996       8.415       6.882       5.451       4.184       3.119       2.221       1.432      0.7036      2.3373E-03
   2    9.995       8.367       6.778       5.287       3.981       2.952       2.110       1.370      0.6766      2.2477E-03
   3    9.995       8.280       6.577       4.934       3.500       2.595       1.898       1.259      0.6307      2.0953E-03
   4    9.995       8.180       6.316       4.372       2.481       2.029       1.628       1.138      0.5843      1.9415E-03
   5    9.995       8.127       6.134       3.737     -0.3697       1.392       1.444       1.079      0.5664      1.8823E-03
   6    9.995       8.197       6.348       4.415       2.529       2.076       1.668       1.167      0.5998      1.9930E-03
   7    9.995       8.316       6.646       5.026       3.603       2.696       1.984       1.321      0.6631      2.2029E-03
   8    9.996       8.427       6.892       5.439       4.152       3.118       2.251       1.470      0.7286      2.4204E-03
   9    9.996       8.506       7.054       5.685       4.447       3.371       2.430       1.578      0.7788      2.5870E-03
  10    9.996       8.545       7.133       5.799       4.579       3.490       2.518       1.634      0.8053      2.6750E-03
1
              HEAD IN LAYER   2 AT END OF TIME STEP  56 IN STRESS PERIOD    3
  ---------------------------------------------------------------------------

            1           2           3           4           5           6           7           8           9          10
 ........................................................................................................................
   1    9.996       8.415       6.882       5.451       4.184       3.119       2.221       1.432      0.7036      2.3373E-03
   2    9.995       8.367       6.778       5.287       3.981       2.952       2.110       1.370      0.6766      2.2477E-03
   3    9.995       8.280       6.577       4.934       3.501       2.595       1.898       1.259      0.6307      2.0953E-03
   4    9.995       8.180       6.316       4.372       2.491       2.029       1.628       1.138      0.5843      1.9415E-03
   5    9.995       8.127       6.135       3.747      0.1345       1.402       1.444       1.079      0.5664      1.8823E-03
   6    9.995       8.197       6.348       4.415       2.539       2.076       1.668       1.167      0.5998      1.9930E-03
   7    9.995       8.316       6.646       5.026       3.603       2.696       1.984       1.321      0.6631      2.2029E-03
   8    9.996       8.427       6.892       5.439       4.152       3.118       2.251       1.470      0.7286      2.4204E-03
   9    9.996       8.506       7.054       5.685       4.447       3.371       2.430       1.578      0.7788      2.5870E-03
  10    9.996       8.545       7.133       5.799       4.579       3.490       2.518       1.634      0.8053      2.6750E-03
1
              HEAD IN LAYER   3 AT END OF TIME STEP  56 IN STRESS PERIOD    3
  ---------------------------------------------------------------------------

            1           2           3           4           5           6           7           8           9          10
 ........................................................................................................................
   1    9.996       8.415       6.882       5.451       4.184       3.119       2.221       1.432      0.7036      2.3373E-03
   2    9.995       8.367       6.778       5.287       3.981       2.952       2.110       1.370      0.6766      2.2477E-03
   3    9.995       8.280       6.577       4.934       3.501       2.595       1.898       1.259      0.6307      2.0953E-03
   4    9.995       8.180       6.316       4.373       2.499       2.029       1.628       1.138      0.5843      1.9415E-03
   5    9.995       8.127       6.135       3.755      0.3763       1.410       1.445       1.079      0.5664      1.8823E-03
   6    9.995       8.197       6.348       4.416       2.547       2.077       1.668       1.167      0.5998      1.9930E-03
   7    9.995       8.316       6.646       5.026       3.604       2.696       1.984       1.321      0.6631      2.2029E-03
   8    9.996       8.427       6.892       5.439       4.152       3.118       2.251       1.470      0.7286      2.4204E-03
   9    9.996       8.506       7.054       5.685       4.447       3.371       2.430       1.578      0.7788      2.5870E-03
  10    9.996       8.545       7.133       5.799       4.579       3.490       2.518       1.634      0.8053      2.6750E-03

 HEAD WILL BE SAVED ON UNIT   51 AT END OF TIME STEP   56, STRESS PERIOD    3

 DRAWDOWN WILL BE SAVED ON UNIT   52 AT END OF TIME STEP   56, STRESS PERIOD    3
1
  VOLUMETRIC BUDGET FOR ENTIRE MODEL AT END OF TIME STEP   56, STRESS PERIOD   3
  ------------------------------------------------------------------------------

     CUMULATIVE VOLUMES      L**3       RATES FOR THIS TIME STEP      L**3/T
     ------------------                 ------------------------

           IN:                                      IN:
           ---                                      ---
             STORAGE =       30315.3242               STORAGE =           6.0203
       CONSTANT HEAD =           0.0000         CONSTANT HEAD =           0.0000
               WELLS =           0.0000                 WELLS =           0.0000
       RIVER LEAKAGE =       91967.1406         RIVER LEAKAGE =         829.6788

            TOTAL IN =      122282.4688              TOTAL IN =         835.6992

          OUT:                                     OUT:
          ----                                     ----
             STORAGE =       3.2051E-02               STORAGE =       2.4275E-04
       CONSTANT HEAD =           0.0000         CONSTANT HEAD =           0.0000
               WELLS =       28000.0000                 WELLS =         500.0000
       RIVER LEAKAGE =       94292.2734         RIVER LEAKAGE =         335.7354

           TOTAL OUT =      122292.3047             TOTAL OUT =         835.7357

            IN - OUT =          -9.8359              IN - OUT =      -3.6499E-02

 PERCENT DISCREPANCY =          -0.01     PERCENT DISCREPANCY =          -0.00






         TIME SUMMARY AT END OF TIME STEP   56 IN STRESS PERIOD    3
                    SECONDS     MINUTES      HOURS       DAYS        YEARS
                    -----------------------------------------------------------
   TIME STEP LENGTH  86400.      1440.0      24.000      1.0000     2.73785E-03
 STRESS PERIOD TIME 4.83840E+06  80640.      1344.0      56.000     0.15332    
         TOTAL TIME 1.35648E+07 2.26080E+05  3768.0      157.00     0.42984    
1

 SOLVING FOR HEAD 

 OUTPUT CONTROL FOR STRESS PERIOD    3   TIME STEP   57
    SAVE HEAD FOR ALL LAYERS
    SAVE DRAWDOWN FOR ALL LAYERS
    SAVE BUDGET
    PRINT HEAD FOR ALL LAYERS
    PRINT BUDGET
 UBDSV1 SAVING "         STORAGE" ON UNIT  53 AT TIME STEP 57, STRESS PERIOD   3
 UBDSV2 SAVING "   CONSTANT HEAD" ON UNIT  53 AT TIME STEP 57, STRESS PERIOD   3
 UBDSV1 SAVING "FLOW RIGHT FACE " ON UNIT  53 AT TIME STEP 57, STRESS PERIOD   3
 UBDSV1 SAVING "FLOW FRONT FACE " ON UNIT  53 AT TIME STEP 57, STRESS PERIOD   3
 UBDSV1 SAVING "FLOW LOWER FACE " ON UNIT  53 AT TIME STEP 57, STRESS PERIOD   3
1
              HEAD IN LAYER   1 AT END OF TIME STEP  57 IN STRESS PERIOD    3
  ---------------------------------------------------------------------------

            1           2           3           4           5           6           7           8           9          10
 ........................................................................................................................
   1    9.996       8.415       6.881       5.450       4.183       3.118       2.220       1.431      0.7033      2.3362E-03
   2    9.995       8.367       6.778       5.286       3.980       2.951       2.109       1.369      0.6763      2.2466E-03
   3    9.995       8.280       6.577       4.933       3.499       2.594       1.897       1.259      0.6303      2.0941E-03
   4    9.995       8.179       6.315       4.370       2.479       2.027       1.627       1.137      0.5839      1.9403E-03
   5    9.995       8.126       6.133       3.736     -0.3722       1.390       1.443       1.078      0.5660      1.8810E-03
   6    9.995       8.196       6.347       4.414       2.528       2.075       1.667       1.167      0.5994      1.9918E-03
   7    9.995       8.316       6.645       5.025       3.602       2.695       1.983       1.321      0.6627      2.2018E-03
   8    9.996       8.427       6.891       5.438       4.151       3.117       2.250       1.469      0.7283      2.4194E-03
   9    9.996       8.505       7.053       5.684       4.446       3.370       2.429       1.578      0.7785      2.5860E-03
  10    9.996       8.545       7.132       5.798       4.578       3.489       2.517       1.634      0.8050      2.6741E-03
1
              HEAD IN LAYER   2 AT END OF TIME STEP  57 IN STRESS PERIOD    3
  ---------------------------------------------------------------------------

            1           2           3           4           5           6           7           8           9          10
 ........................................................................................................................
   1    9.996       8.415       6.881       5.450       4.183       3.118       2.220       1.431      0.7033      2.3362E-03
   2    9.995       8.367       6.778       5.286       3.980       2.951       2.109       1.369      0.6763      2.2466E-03
   3    9.995       8.280       6.577       4.933       3.499       2.594       1.897       1.259      0.6303      2.0941E-03
   4    9.995       8.179       6.315       4.371       2.489       2.028       1.627       1.137      0.5839      1.9403E-03
   5    9.995       8.126       6.134       3.746      0.1321       1.400       1.443       1.078      0.5660      1.8810E-03
   6    9.995       8.196       6.347       4.414       2.538       2.075       1.667       1.167      0.5994      1.9918E-03
   7    9.995       8.316       6.645       5.025       3.602       2.695       1.983       1.321      0.6627      2.2018E-03
   8    9.996       8.427       6.891       5.438       4.151       3.117       2.250       1.469      0.7283      2.4194E-03
   9    9.996       8.505       7.053       5.684       4.446       3.370       2.429       1.578      0.7785      2.5860E-03
  10    9.996       8.545       7.132       5.798       4.578       3.489       2.517       1.634      0.8050      2.6741E-03
1
              HEAD IN LAYER   3 AT END OF TIME STEP  57 IN STRESS PERIOD    3
  ---------------------------------------------------------------------------

            1           2           3           4           5           6           7           8           9          10
 ........................................................................................................................
   1    9.996       8.415       6.881       5.450       4.183       3.118       2.220       1.431      0.7033      2.3362E-03
   2    9.995       8.367       6.778       5.286       3.980       2.951       2.109       1.369      0.6763      2.2466E-03
   3    9.995       8.280       6.577       4.933       3.500       2.594       1.897       1.259      0.6303      2.0941E-03
   4    9.995       8.179       6.315       4.371       2.497       2.028       1.627       1.137      0.5839      1.9403E-03
   5    9.995       8.126       6.134       3.754      0.3740       1.408       1.444       1.078      0.5660      1.8810E-03
   6    9.995       8.196       6.347       4.414       2.546       2.075       1.667       1.167      0.5994      1.9918E-03
   7    9.995       8.316       6.645       5.025       3.602       2.695       1.983       1.321      0.6627      2.2018E-03
   8    9.996       8.427       6.891       5.438       4.151       3.117       2.250       1.469      0.7283      2.4194E-03
   9    9.996       8.505       7.053       5.684       4.446       3.370       2.429       1.578      0.7785      2.5860E-03
  10    9.996       8.545       7.132       5.798       4.578       3.489       2.517       1.634      0.8050      2.6741E-03

 HEAD WILL BE SAVED ON UNIT   51 AT END OF TIME STEP   57, STRESS PERIOD    3

 DRAWDOWN WILL BE SAVED ON UNIT   52 AT END OF TIME STEP   57, STRESS PERIOD    3
1
  VOLUMETRIC BUDGET FOR ENTIRE MODEL AT END OF TIME STEP   57, STRESS PERIOD   3
  ------------------------------------------------------------------------------

     CUMULATIVE VOLUMES      L**3       RATES FOR THIS TIME STEP      L**3/T
     ------------------                 ------------------------

           IN:                                      IN:
           ---                                      ---
             STORAGE =       30320.9922               STORAGE =           5.6687
       CONSTANT HEAD =           0.0000         CONSTANT HEAD =           0.0000
               WELLS =           0.0000                 WELLS =           0.0000
       RIVER LEAKAGE =       92797.0078         RIVER LEAKAGE =         829.8638

            TOTAL IN =      123118.0000              TOTAL IN =         835.5325

          OUT:                                     OUT:
          ----                                     ----
             STORAGE =       3.2396E-02               STORAGE =       3.4590E-04
       CONSTANT HEAD =           0.0000         CONSTANT HEAD =           0.0000
               WELLS =       28500.0000                 WELLS =         500.0000
       RIVER LEAKAGE =       94627.8438         RIVER LEAKAGE =         335.5693

           TOTAL OUT =      123127.8750             TOTAL OUT =         835.5697

            IN - OUT =          -9.8750              IN - OUT =      -3.7170E-02

 PERCENT DISCREPANCY =          -0.01     PERCENT DISCREPANCY =          -0.00






         TIME SUMMARY AT END OF TIME STEP   57 IN STRESS PERIOD    3
                    SECONDS     MINUTES      HOURS       DAYS        YEARS
                    -----------------------------------------------------------
   TIME STEP LENGTH  86400.      1440.0      24.000      1.0000     2.73785E-03
 STRESS PERIOD TIME 4.92480E+06  82080.      1368.0      57.000     0.15606    
         TOTAL TIME 1.36512E+07 2.27520E+05  3792.0      158.00     0.43258    
1

 SOLVING FOR HEAD 

 OUTPUT CONTROL FOR STRESS PERIOD    3   TIME STEP   58
    SAVE HEAD FOR ALL LAYERS
    SAVE DRAWDOWN FOR ALL LAYERS
    SAVE BUDGET
    PRINT HEAD FOR ALL LAYERS
    PRINT BUDGET
 UBDSV1 SAVING "         STORAGE" ON UNIT  53 AT TIME STEP 58, STRESS PERIOD   3
 UBDSV2 SAVING "   CONSTANT HEAD" ON UNIT  53 AT TIME STEP 58, STRESS PERIOD   3
 UBDSV1 SAVING "FLOW RIGHT FACE " ON UNIT  53 AT TIME STEP 58, STRESS PERIOD   3
 UBDSV1 SAVING "FLOW FRONT FACE " ON UNIT  53 AT TIME STEP 58, STRESS PERIOD   3
 UBDSV1 SAVING "FLOW LOWER FACE " ON UNIT  53 AT TIME STEP 58, STRESS PERIOD   3
1
              HEAD IN LAYER   1 AT END OF TIME STEP  58 IN STRESS PERIOD    3
  ---------------------------------------------------------------------------

            1           2           3           4           5           6           7           8           9          10
 ........................................................................................................................
   1    9.996       8.414       6.880       5.449       4.182       3.117       2.219       1.430      0.7030      2.3352E-03
   2    9.995       8.367       6.777       5.285       3.979       2.950       2.109       1.368      0.6760      2.2456E-03
   3    9.995       8.279       6.576       4.932       3.498       2.593       1.897       1.258      0.6300      2.0930E-03
   4    9.995       8.179       6.315       4.369       2.478       2.026       1.626       1.136      0.5836      1.9391E-03
   5    9.995       8.126       6.133       3.735     -0.3746       1.389       1.442       1.078      0.5657      1.8799E-03
   6    9.995       8.196       6.347       4.412       2.526       2.073       1.666       1.166      0.5991      1.9907E-03
   7    9.995       8.316       6.644       5.024       3.601       2.694       1.982       1.320      0.6624      2.2007E-03
   8    9.996       8.427       6.890       5.437       4.150       3.116       2.249       1.469      0.7280      2.4185E-03
   9    9.996       8.505       7.053       5.684       4.445       3.370       2.428       1.577      0.7782      2.5851E-03
  10    9.996       8.544       7.132       5.798       4.577       3.488       2.517       1.633      0.8047      2.6732E-03
1
              HEAD IN LAYER   2 AT END OF TIME STEP  58 IN STRESS PERIOD    3
  ---------------------------------------------------------------------------

            1           2           3           4           5           6           7           8           9          10
 ........................................................................................................................
   1    9.996       8.414       6.880       5.449       4.182       3.117       2.219       1.430      0.7030      2.3352E-03
   2    9.995       8.367       6.777       5.285       3.979       2.950       2.109       1.368      0.6760      2.2456E-03
   3    9.995       8.279       6.576       4.932       3.498       2.593       1.897       1.258      0.6300      2.0930E-03
   4    9.995       8.179       6.315       4.370       2.488       2.026       1.626       1.136      0.5836      1.9391E-03
   5    9.995       8.126       6.133       3.744      0.1298       1.399       1.442       1.078      0.5657      1.8799E-03
   6    9.995       8.196       6.347       4.413       2.536       2.074       1.666       1.166      0.5991      1.9907E-03
   7    9.995       8.316       6.644       5.024       3.601       2.694       1.982       1.320      0.6624      2.2007E-03
   8    9.996       8.427       6.890       5.437       4.150       3.116       2.249       1.469      0.7280      2.4184E-03
   9    9.996       8.505       7.053       5.684       4.445       3.370       2.428       1.577      0.7782      2.5851E-03
  10    9.996       8.544       7.132       5.798       4.577       3.488       2.517       1.633      0.8047      2.6732E-03
1
              HEAD IN LAYER   3 AT END OF TIME STEP  58 IN STRESS PERIOD    3
  ---------------------------------------------------------------------------

            1           2           3           4           5           6           7           8           9          10
 ........................................................................................................................
   1    9.996       8.414       6.880       5.449       4.182       3.117       2.219       1.430      0.7030      2.3352E-03
   2    9.995       8.367       6.777       5.285       3.979       2.950       2.109       1.368      0.6760      2.2455E-03
   3    9.995       8.279       6.576       4.932       3.498       2.593       1.897       1.258      0.6300      2.0930E-03
   4    9.995       8.179       6.315       4.370       2.496       2.027       1.626       1.136      0.5836      1.9392E-03
   5    9.995       8.126       6.133       3.752      0.3719       1.407       1.442       1.078      0.5657      1.8799E-03
   6    9.995       8.196       6.347       4.413       2.544       2.074       1.666       1.166      0.5991      1.9907E-03
   7    9.995       8.316       6.644       5.024       3.601       2.694       1.982       1.320      0.6624      2.2007E-03
   8    9.996       8.427       6.890       5.437       4.150       3.116       2.249       1.469      0.7280      2.4184E-03
   9    9.996       8.505       7.053       5.684       4.445       3.370       2.428       1.577      0.7782      2.5851E-03
  10    9.996       8.544       7.132       5.798       4.577       3.488       2.517       1.633      0.8047      2.6732E-03

 HEAD WILL BE SAVED ON UNIT   51 AT END OF TIME STEP   58, STRESS PERIOD    3

 DRAWDOWN WILL BE SAVED ON UNIT   52 AT END OF TIME STEP   58, STRESS PERIOD    3
1
  VOLUMETRIC BUDGET FOR ENTIRE MODEL AT END OF TIME STEP   58, STRESS PERIOD   3
  ------------------------------------------------------------------------------

     CUMULATIVE VOLUMES      L**3       RATES FOR THIS TIME STEP      L**3/T
     ------------------                 ------------------------

           IN:                                      IN:
           ---                                      ---
             STORAGE =       30326.3301               STORAGE =           5.3382
       CONSTANT HEAD =           0.0000         CONSTANT HEAD =           0.0000
               WELLS =           0.0000                 WELLS =           0.0000
       RIVER LEAKAGE =       93627.0469         RIVER LEAKAGE =         830.0379

            TOTAL IN =      123953.3750              TOTAL IN =         835.3762

          OUT:                                     OUT:
          ----                                     ----
             STORAGE =       3.2666E-02               STORAGE =       2.6991E-04
       CONSTANT HEAD =           0.0000         CONSTANT HEAD =           0.0000
               WELLS =       29000.0000                 WELLS =         500.0000
       RIVER LEAKAGE =       94963.2578         RIVER LEAKAGE =         335.4135

           TOTAL OUT =      123963.2891             TOTAL OUT =         835.4138

            IN - OUT =          -9.9141              IN - OUT =      -3.7598E-02

 PERCENT DISCREPANCY =          -0.01     PERCENT DISCREPANCY =          -0.00






         TIME SUMMARY AT END OF TIME STEP   58 IN STRESS PERIOD    3
                    SECONDS     MINUTES      HOURS       DAYS        YEARS
                    -----------------------------------------------------------
   TIME STEP LENGTH  86400.      1440.0      24.000      1.0000     2.73785E-03
 STRESS PERIOD TIME 5.01120E+06  83520.      1392.0      58.000     0.15880    
         TOTAL TIME 1.37376E+07 2.28960E+05  3816.0      159.00     0.43532    
1

 SOLVING FOR HEAD 

 OUTPUT CONTROL FOR STRESS PERIOD    3   TIME STEP   59
    SAVE HEAD FOR ALL LAYERS
    SAVE DRAWDOWN FOR ALL LAYERS
    SAVE BUDGET
    PRINT HEAD FOR ALL LAYERS
    PRINT BUDGET
 UBDSV1 SAVING "         STORAGE" ON UNIT  53 AT TIME STEP 59, STRESS PERIOD   3
 UBDSV2 SAVING "   CONSTANT HEAD" ON UNIT  53 AT TIME STEP 59, STRESS PERIOD   3
 UBDSV1 SAVING "FLOW RIGHT FACE " ON UNIT  53 AT TIME STEP 59, STRESS PERIOD   3
 UBDSV1 SAVING "FLOW FRONT FACE " ON UNIT  53 AT TIME STEP 59, STRESS PERIOD   3
 UBDSV1 SAVING "FLOW LOWER FACE " ON UNIT  53 AT TIME STEP 59, STRESS PERIOD   3
1
              HEAD IN LAYER   1 AT END OF TIME STEP  59 IN STRESS PERIOD    3
  ---------------------------------------------------------------------------

            1           2           3           4           5           6           7           8           9          10
 ........................................................................................................................
   1    9.996       8.414       6.880       5.449       4.181       3.116       2.218       1.430      0.7027      2.3342E-03
   2    9.995       8.366       6.777       5.284       3.978       2.949       2.108       1.368      0.6757      2.2446E-03
   3    9.995       8.279       6.575       4.931       3.497       2.592       1.896       1.257      0.6297      2.0920E-03
   4    9.995       8.178       6.314       4.368       2.477       2.025       1.625       1.136      0.5833      1.9381E-03
   5    9.995       8.125       6.132       3.733     -0.3768       1.387       1.441       1.077      0.5653      1.8788E-03
   6    9.995       8.195       6.346       4.411       2.525       2.072       1.665       1.165      0.5988      1.9896E-03
   7    9.995       8.315       6.644       5.023       3.600       2.693       1.982       1.319      0.6621      2.1998E-03
   8    9.996       8.427       6.890       5.437       4.149       3.115       2.248       1.468      0.7277      2.4175E-03
   9    9.996       8.505       7.052       5.683       4.445       3.369       2.428       1.577      0.7779      2.5843E-03
  10    9.996       8.544       7.131       5.797       4.577       3.487       2.516       1.633      0.8045      2.6724E-03
1
              HEAD IN LAYER   2 AT END OF TIME STEP  59 IN STRESS PERIOD    3
  ---------------------------------------------------------------------------

            1           2           3           4           5           6           7           8           9          10
 ........................................................................................................................
   1    9.996       8.414       6.880       5.449       4.181       3.116       2.218       1.430      0.7027      2.3342E-03
   2    9.995       8.366       6.777       5.284       3.978       2.949       2.108       1.368      0.6757      2.2446E-03
   3    9.995       8.279       6.575       4.931       3.497       2.592       1.896       1.257      0.6297      2.0920E-03
   4    9.995       8.178       6.314       4.369       2.487       2.025       1.625       1.136      0.5833      1.9381E-03
   5    9.995       8.125       6.132       3.743      0.1277       1.398       1.441       1.077      0.5653      1.8788E-03
   6    9.995       8.195       6.346       4.412       2.535       2.073       1.665       1.165      0.5988      1.9896E-03
   7    9.995       8.315       6.644       5.023       3.600       2.693       1.982       1.319      0.6621      2.1998E-03
   8    9.996       8.427       6.890       5.437       4.149       3.115       2.248       1.468      0.7277      2.4175E-03
   9    9.996       8.505       7.052       5.683       4.445       3.369       2.428       1.577      0.7779      2.5843E-03
  10    9.996       8.544       7.131       5.797       4.577       3.487       2.516       1.633      0.8045      2.6724E-03
1
              HEAD IN LAYER   3 AT END OF TIME STEP  59 IN STRESS PERIOD    3
  ---------------------------------------------------------------------------

            1           2           3           4           5           6           7           8           9          10
 ........................................................................................................................
   1    9.996       8.414       6.880       5.449       4.181       3.116       2.218       1.430      0.7027      2.3342E-03
   2    9.995       8.366       6.777       5.284       3.978       2.949       2.108       1.368      0.6757      2.2446E-03
   3    9.995       8.279       6.575       4.931       3.497       2.592       1.896       1.257      0.6297      2.0919E-03
   4    9.995       8.178       6.314       4.369       2.494       2.026       1.625       1.136      0.5833      1.9381E-03
   5    9.995       8.125       6.132       3.751      0.3698       1.406       1.441       1.077      0.5653      1.8788E-03
   6    9.995       8.195       6.346       4.412       2.543       2.073       1.665       1.165      0.5988      1.9896E-03
   7    9.995       8.315       6.644       5.023       3.600       2.693       1.982       1.319      0.6621      2.1998E-03
   8    9.996       8.427       6.890       5.437       4.149       3.115       2.248       1.468      0.7277      2.4175E-03
   9    9.996       8.505       7.052       5.683       4.445       3.369       2.428       1.577      0.7779      2.5843E-03
  10    9.996       8.544       7.131       5.797       4.577       3.487       2.516       1.633      0.8045      2.6724E-03

 HEAD WILL BE SAVED ON UNIT   51 AT END OF TIME STEP   59, STRESS PERIOD    3

 DRAWDOWN WILL BE SAVED ON UNIT   52 AT END OF TIME STEP   59, STRESS PERIOD    3
1
  VOLUMETRIC BUDGET FOR ENTIRE MODEL AT END OF TIME STEP   59, STRESS PERIOD   3
  ------------------------------------------------------------------------------

     CUMULATIVE VOLUMES      L**3       RATES FOR THIS TIME STEP      L**3/T
     ------------------                 ------------------------

           IN:                                      IN:
           ---                                      ---
             STORAGE =       30331.3574               STORAGE =           5.0272
       CONSTANT HEAD =           0.0000         CONSTANT HEAD =           0.0000
               WELLS =           0.0000                 WELLS =           0.0000
       RIVER LEAKAGE =       94457.2500         RIVER LEAKAGE =         830.2018

            TOTAL IN =      124788.6094              TOTAL IN =         835.2289

          OUT:                                     OUT:
          ----                                     ----
             STORAGE =       3.2946E-02               STORAGE =       2.7941E-04
       CONSTANT HEAD =           0.0000         CONSTANT HEAD =           0.0000
               WELLS =       29500.0000                 WELLS =         500.0000
       RIVER LEAKAGE =       95298.5234         RIVER LEAKAGE =         335.2669

           TOTAL OUT =      124798.5547             TOTAL OUT =         835.2672

            IN - OUT =          -9.9453              IN - OUT =      -3.8208E-02

 PERCENT DISCREPANCY =          -0.01     PERCENT DISCREPANCY =          -0.00






         TIME SUMMARY AT END OF TIME STEP   59 IN STRESS PERIOD    3
                    SECONDS     MINUTES      HOURS       DAYS        YEARS
                    -----------------------------------------------------------
   TIME STEP LENGTH  86400.      1440.0      24.000      1.0000     2.73785E-03
 STRESS PERIOD TIME 5.09760E+06  84960.      1416.0      59.000     0.16153    
         TOTAL TIME 1.38240E+07 2.30400E+05  3840.0      160.00     0.43806    
1

 SOLVING FOR HEAD 

 OUTPUT CONTROL FOR STRESS PERIOD    3   TIME STEP   60
    SAVE HEAD FOR ALL LAYERS
    SAVE DRAWDOWN FOR ALL LAYERS
    SAVE BUDGET
    PRINT HEAD FOR ALL LAYERS
    PRINT BUDGET
 UBDSV1 SAVING "         STORAGE" ON UNIT  53 AT TIME STEP 60, STRESS PERIOD   3
 UBDSV2 SAVING "   CONSTANT HEAD" ON UNIT  53 AT TIME STEP 60, STRESS PERIOD   3
 UBDSV1 SAVING "FLOW RIGHT FACE " ON UNIT  53 AT TIME STEP 60, STRESS PERIOD   3
 UBDSV1 SAVING "FLOW FRONT FACE " ON UNIT  53 AT TIME STEP 60, STRESS PERIOD   3
 UBDSV1 SAVING "FLOW LOWER FACE " ON UNIT  53 AT TIME STEP 60, STRESS PERIOD   3
1
              HEAD IN LAYER   1 AT END OF TIME STEP  60 IN STRESS PERIOD    3
  ---------------------------------------------------------------------------

            1           2           3           4           5           6           7           8           9          10
 ........................................................................................................................
   1    9.996       8.414       6.879       5.448       4.180       3.116       2.218       1.429      0.7024      2.3333E-03
   2    9.995       8.366       6.776       5.283       3.977       2.948       2.107       1.367      0.6754      2.2436E-03
   3    9.995       8.279       6.575       4.931       3.496       2.591       1.895       1.257      0.6294      2.0910E-03
   4    9.995       8.178       6.313       4.367       2.475       2.024       1.624       1.135      0.5830      1.9370E-03
   5    9.995       8.125       6.131       3.732     -0.3789       1.386       1.440       1.076      0.5650      1.8777E-03
   6    9.995       8.195       6.345       4.410       2.524       2.071       1.665       1.165      0.5985      1.9886E-03
   7    9.995       8.315       6.643       5.022       3.599       2.692       1.981       1.319      0.6618      2.1988E-03
   8    9.996       8.426       6.889       5.436       4.148       3.114       2.248       1.468      0.7275      2.4167E-03
   9    9.996       8.505       7.052       5.682       4.444       3.368       2.427       1.576      0.7777      2.5835E-03
  10    9.996       8.544       7.131       5.797       4.576       3.487       2.516       1.632      0.8043      2.6716E-03
1
              HEAD IN LAYER   2 AT END OF TIME STEP  60 IN STRESS PERIOD    3
  ---------------------------------------------------------------------------

            1           2           3           4           5           6           7           8           9          10
 ........................................................................................................................
   1    9.996       8.414       6.879       5.448       4.180       3.116       2.218       1.429      0.7024      2.3333E-03
   2    9.995       8.366       6.776       5.283       3.977       2.948       2.107       1.367      0.6754      2.2436E-03
   3    9.995       8.279       6.575       4.931       3.496       2.591       1.895       1.257      0.6294      2.0910E-03
   4    9.995       8.178       6.313       4.368       2.485       2.024       1.624       1.135      0.5830      1.9370E-03
   5    9.995       8.125       6.131       3.742      0.1257       1.396       1.440       1.076      0.5650      1.8777E-03
   6    9.995       8.195       6.345       4.411       2.534       2.071       1.665       1.165      0.5985      1.9886E-03
   7    9.995       8.315       6.643       5.022       3.599       2.692       1.981       1.319      0.6618      2.1988E-03
   8    9.996       8.426       6.889       5.436       4.148       3.114       2.248       1.468      0.7275      2.4167E-03
   9    9.996       8.505       7.052       5.682       4.444       3.368       2.427       1.576      0.7777      2.5835E-03
  10    9.996       8.544       7.131       5.797       4.576       3.487       2.516       1.632      0.8043      2.6716E-03
1
              HEAD IN LAYER   3 AT END OF TIME STEP  60 IN STRESS PERIOD    3
  ---------------------------------------------------------------------------

            1           2           3           4           5           6           7           8           9          10
 ........................................................................................................................
   1    9.996       8.414       6.879       5.448       4.180       3.116       2.218       1.429      0.7024      2.3333E-03
   2    9.995       8.366       6.776       5.283       3.977       2.948       2.107       1.367      0.6754      2.2436E-03
   3    9.995       8.279       6.575       4.931       3.496       2.591       1.895       1.257      0.6294      2.0910E-03
   4    9.995       8.178       6.313       4.368       2.493       2.024       1.624       1.135      0.5830      1.9370E-03
   5    9.995       8.125       6.132       3.750      0.3679       1.404       1.441       1.076      0.5650      1.8777E-03
   6    9.995       8.195       6.345       4.411       2.542       2.072       1.665       1.165      0.5985      1.9886E-03
   7    9.995       8.315       6.643       5.022       3.599       2.692       1.981       1.319      0.6618      2.1988E-03
   8    9.996       8.426       6.889       5.436       4.148       3.114       2.248       1.468      0.7275      2.4167E-03
   9    9.996       8.505       7.052       5.682       4.444       3.368       2.427       1.576      0.7777      2.5835E-03
  10    9.996       8.544       7.131       5.797       4.576       3.487       2.516       1.632      0.8043      2.6716E-03

 HEAD WILL BE SAVED ON UNIT   51 AT END OF TIME STEP   60, STRESS PERIOD    3

 DRAWDOWN WILL BE SAVED ON UNIT   52 AT END OF TIME STEP   60, STRESS PERIOD    3
1
  VOLUMETRIC BUDGET FOR ENTIRE MODEL AT END OF TIME STEP   60, STRESS PERIOD   3
  ------------------------------------------------------------------------------

     CUMULATIVE VOLUMES      L**3       RATES FOR THIS TIME STEP      L**3/T
     ------------------                 ------------------------

           IN:                                      IN:
           ---                                      ---
             STORAGE =       30336.0918               STORAGE =           4.7345
       CONSTANT HEAD =           0.0000         CONSTANT HEAD =           0.0000
               WELLS =           0.0000                 WELLS =           0.0000
       RIVER LEAKAGE =       95287.6094         RIVER LEAKAGE =         830.3599

            TOTAL IN =      125623.7031              TOTAL IN =         835.0944

          OUT:                                     OUT:
          ----                                     ----
             STORAGE =       3.3206E-02               STORAGE =       2.6013E-04
       CONSTANT HEAD =           0.0000         CONSTANT HEAD =           0.0000
               WELLS =       30000.0000                 WELLS =         500.0000
       RIVER LEAKAGE =       95633.6484         RIVER LEAKAGE =         335.1287

           TOTAL OUT =      125633.6797             TOTAL OUT =         835.1290

            IN - OUT =          -9.9766              IN - OUT =      -3.4607E-02

 PERCENT DISCREPANCY =          -0.01     PERCENT DISCREPANCY =          -0.00






         TIME SUMMARY AT END OF TIME STEP   60 IN STRESS PERIOD    3
                    SECONDS     MINUTES      HOURS       DAYS        YEARS
                    -----------------------------------------------------------
   TIME STEP LENGTH  86400.      1440.0      24.000      1.0000     2.73785E-03
 STRESS PERIOD TIME 5.18400E+06  86400.      1440.0      60.000     0.16427    
         TOTAL TIME 1.39104E+07 2.31840E+05  3864.0      161.00     0.44079    
1

 SOLVING FOR HEAD 

 OUTPUT CONTROL FOR STRESS PERIOD    3   TIME STEP   61
    SAVE HEAD FOR ALL LAYERS
    SAVE DRAWDOWN FOR ALL LAYERS
    SAVE BUDGET
    PRINT HEAD FOR ALL LAYERS
    PRINT BUDGET
 UBDSV1 SAVING "         STORAGE" ON UNIT  53 AT TIME STEP 61, STRESS PERIOD   3
 UBDSV2 SAVING "   CONSTANT HEAD" ON UNIT  53 AT TIME STEP 61, STRESS PERIOD   3
 UBDSV1 SAVING "FLOW RIGHT FACE " ON UNIT  53 AT TIME STEP 61, STRESS PERIOD   3
 UBDSV1 SAVING "FLOW FRONT FACE " ON UNIT  53 AT TIME STEP 61, STRESS PERIOD   3
 UBDSV1 SAVING "FLOW LOWER FACE " ON UNIT  53 AT TIME STEP 61, STRESS PERIOD   3
1
              HEAD IN LAYER   1 AT END OF TIME STEP  61 IN STRESS PERIOD    3
  ---------------------------------------------------------------------------

            1           2           3           4           5           6           7           8           9          10
 ........................................................................................................................
   1    9.996       8.413       6.879       5.447       4.180       3.115       2.217       1.429      0.7022      2.3325E-03
   2    9.995       8.366       6.775       5.282       3.976       2.947       2.106       1.367      0.6751      2.2428E-03
   3    9.995       8.278       6.574       4.930       3.495       2.590       1.894       1.256      0.6291      2.0901E-03
   4    9.995       8.178       6.312       4.366       2.474       2.022       1.623       1.135      0.5827      1.9361E-03
   5    9.995       8.125       6.130       3.731     -0.3809       1.385       1.439       1.076      0.5647      1.8767E-03
   6    9.995       8.195       6.345       4.409       2.522       2.070       1.664       1.164      0.5982      1.9877E-03
   7    9.995       8.315       6.643       5.022       3.598       2.691       1.980       1.318      0.6616      2.1980E-03
   8    9.996       8.426       6.889       5.435       4.148       3.113       2.247       1.467      0.7272      2.4159E-03
   9    9.996       8.504       7.051       5.682       4.443       3.367       2.426       1.576      0.7775      2.5827E-03
  10    9.996       8.544       7.130       5.796       4.575       3.486       2.515       1.632      0.8040      2.6709E-03
1
              HEAD IN LAYER   2 AT END OF TIME STEP  61 IN STRESS PERIOD    3
  ---------------------------------------------------------------------------

            1           2           3           4           5           6           7           8           9          10
 ........................................................................................................................
   1    9.996       8.413       6.879       5.447       4.180       3.115       2.217       1.429      0.7022      2.3324E-03
   2    9.995       8.366       6.775       5.282       3.976       2.947       2.106       1.367      0.6751      2.2428E-03
   3    9.995       8.278       6.574       4.930       3.495       2.590       1.894       1.256      0.6291      2.0901E-03
   4    9.995       8.178       6.312       4.367       2.484       2.023       1.623       1.135      0.5827      1.9361E-03
   5    9.995       8.125       6.131       3.741      0.1239       1.395       1.439       1.076      0.5647      1.8767E-03
   6    9.995       8.195       6.345       4.410       2.532       2.070       1.664       1.164      0.5982      1.9877E-03
   7    9.995       8.315       6.643       5.022       3.598       2.691       1.980       1.318      0.6616      2.1980E-03
   8    9.996       8.426       6.889       5.435       4.148       3.113       2.247       1.467      0.7272      2.4159E-03
   9    9.996       8.504       7.051       5.682       4.443       3.367       2.426       1.576      0.7775      2.5827E-03
  10    9.996       8.544       7.130       5.796       4.575       3.486       2.515       1.632      0.8040      2.6709E-03
1
              HEAD IN LAYER   3 AT END OF TIME STEP  61 IN STRESS PERIOD    3
  ---------------------------------------------------------------------------

            1           2           3           4           5           6           7           8           9          10
 ........................................................................................................................
   1    9.996       8.413       6.879       5.447       4.180       3.115       2.217       1.429      0.7022      2.3325E-03
   2    9.995       8.366       6.775       5.282       3.976       2.947       2.106       1.367      0.6751      2.2427E-03
   3    9.995       8.278       6.574       4.930       3.495       2.590       1.894       1.256      0.6291      2.0900E-03
   4    9.995       8.178       6.312       4.367       2.492       2.023       1.623       1.135      0.5827      1.9361E-03
   5    9.995       8.125       6.131       3.749      0.3661       1.403       1.440       1.076      0.5647      1.8767E-03
   6    9.995       8.195       6.345       4.410       2.540       2.071       1.664       1.164      0.5982      1.9877E-03
   7    9.995       8.315       6.643       5.022       3.598       2.691       1.980       1.318      0.6616      2.1980E-03
   8    9.996       8.426       6.889       5.435       4.148       3.113       2.247       1.467      0.7272      2.4159E-03
   9    9.996       8.504       7.051       5.682       4.443       3.367       2.426       1.576      0.7775      2.5827E-03
  10    9.996       8.544       7.130       5.796       4.575       3.486       2.515       1.632      0.8040      2.6709E-03

 HEAD WILL BE SAVED ON UNIT   51 AT END OF TIME STEP   61, STRESS PERIOD    3

 DRAWDOWN WILL BE SAVED ON UNIT   52 AT END OF TIME STEP   61, STRESS PERIOD    3
1
  VOLUMETRIC BUDGET FOR ENTIRE MODEL AT END OF TIME STEP   61, STRESS PERIOD   3
  ------------------------------------------------------------------------------

     CUMULATIVE VOLUMES      L**3       RATES FOR THIS TIME STEP      L**3/T
     ------------------                 ------------------------

           IN:                                      IN:
           ---                                      ---
             STORAGE =       30340.5508               STORAGE =           4.4590
       CONSTANT HEAD =           0.0000         CONSTANT HEAD =           0.0000
               WELLS =           0.0000                 WELLS =           0.0000
       RIVER LEAKAGE =       96118.1172         RIVER LEAKAGE =         830.5051

            TOTAL IN =      126458.6719              TOTAL IN =         834.9641

          OUT:                                     OUT:
          ----                                     ----
             STORAGE =       3.3613E-02               STORAGE =       4.0683E-04
       CONSTANT HEAD =           0.0000         CONSTANT HEAD =           0.0000
               WELLS =       30500.0000                 WELLS =         500.0000
       RIVER LEAKAGE =       95968.6484         RIVER LEAKAGE =         334.9987

           TOTAL OUT =      126468.6797             TOTAL OUT =         834.9991

            IN - OUT =         -10.0078              IN - OUT =      -3.5095E-02

 PERCENT DISCREPANCY =          -0.01     PERCENT DISCREPANCY =          -0.00






         TIME SUMMARY AT END OF TIME STEP   61 IN STRESS PERIOD    3
                    SECONDS     MINUTES      HOURS       DAYS        YEARS
                    -----------------------------------------------------------
   TIME STEP LENGTH  86400.      1440.0      24.000      1.0000     2.73785E-03
 STRESS PERIOD TIME 5.27040E+06  87840.      1464.0      61.000     0.16701    
         TOTAL TIME 1.39968E+07 2.33280E+05  3888.0      162.00     0.44353    
1

 SOLVING FOR HEAD 

 OUTPUT CONTROL FOR STRESS PERIOD    3   TIME STEP   62
    SAVE HEAD FOR ALL LAYERS
    SAVE DRAWDOWN FOR ALL LAYERS
    SAVE BUDGET
    PRINT HEAD FOR ALL LAYERS
    PRINT BUDGET
 UBDSV1 SAVING "         STORAGE" ON UNIT  53 AT TIME STEP 62, STRESS PERIOD   3
 UBDSV2 SAVING "   CONSTANT HEAD" ON UNIT  53 AT TIME STEP 62, STRESS PERIOD   3
 UBDSV1 SAVING "FLOW RIGHT FACE " ON UNIT  53 AT TIME STEP 62, STRESS PERIOD   3
 UBDSV1 SAVING "FLOW FRONT FACE " ON UNIT  53 AT TIME STEP 62, STRESS PERIOD   3
 UBDSV1 SAVING "FLOW LOWER FACE " ON UNIT  53 AT TIME STEP 62, STRESS PERIOD   3
1
              HEAD IN LAYER   1 AT END OF TIME STEP  62 IN STRESS PERIOD    3
  ---------------------------------------------------------------------------

            1           2           3           4           5           6           7           8           9          10
 ........................................................................................................................
   1    9.996       8.413       6.878       5.447       4.179       3.114       2.216       1.428      0.7019      2.3317E-03
   2    9.995       8.365       6.775       5.282       3.975       2.946       2.106       1.366      0.6749      2.2419E-03
   3    9.995       8.278       6.574       4.929       3.494       2.589       1.893       1.256      0.6288      2.0892E-03
   4    9.995       8.177       6.312       4.365       2.473       2.021       1.622       1.134      0.5824      1.9352E-03
   5    9.995       8.124       6.130       3.730     -0.3827       1.384       1.438       1.075      0.5645      1.8758E-03
   6    9.995       8.194       6.344       4.408       2.521       2.069       1.663       1.164      0.5979      1.9868E-03
   7    9.995       8.314       6.642       5.021       3.597       2.690       1.979       1.318      0.6613      2.1971E-03
   8    9.996       8.426       6.888       5.434       4.147       3.113       2.246       1.467      0.7270      2.4151E-03
   9    9.996       8.504       7.051       5.681       4.443       3.367       2.426       1.575      0.7773      2.5820E-03
  10    9.996       8.543       7.130       5.795       4.575       3.486       2.514       1.631      0.8038      2.6702E-03
1
              HEAD IN LAYER   2 AT END OF TIME STEP  62 IN STRESS PERIOD    3
  ---------------------------------------------------------------------------

            1           2           3           4           5           6           7           8           9          10
 ........................................................................................................................
   1    9.996       8.413       6.878       5.447       4.179       3.114       2.216       1.428      0.7019      2.3317E-03
   2    9.995       8.365       6.775       5.282       3.975       2.946       2.106       1.366      0.6749      2.2419E-03
   3    9.995       8.278       6.574       4.929       3.494       2.589       1.893       1.256      0.6288      2.0892E-03
   4    9.995       8.177       6.312       4.366       2.483       2.022       1.622       1.134      0.5824      1.9352E-03
   5    9.995       8.124       6.130       3.740      0.1221       1.394       1.439       1.075      0.5645      1.8758E-03
   6    9.995       8.194       6.344       4.409       2.531       2.069       1.663       1.164      0.5979      1.9868E-03
   7    9.995       8.314       6.642       5.021       3.597       2.690       1.979       1.318      0.6613      2.1971E-03
   8    9.996       8.426       6.888       5.434       4.147       3.113       2.246       1.467      0.7270      2.4151E-03
   9    9.996       8.504       7.051       5.681       4.443       3.367       2.426       1.575      0.7773      2.5820E-03
  10    9.996       8.543       7.130       5.795       4.575       3.486       2.514       1.631      0.8038      2.6702E-03
1
              HEAD IN LAYER   3 AT END OF TIME STEP  62 IN STRESS PERIOD    3
  ---------------------------------------------------------------------------

            1           2           3           4           5           6           7           8           9          10
 ........................................................................................................................
   1    9.996       8.413       6.878       5.447       4.179       3.114       2.216       1.428      0.7019      2.3316E-03
   2    9.995       8.365       6.775       5.282       3.975       2.946       2.106       1.366      0.6749      2.2419E-03
   3    9.995       8.278       6.574       4.929       3.494       2.589       1.893       1.256      0.6288      2.0892E-03
   4    9.995       8.177       6.312       4.366       2.491       2.022       1.622       1.134      0.5824      1.9352E-03
   5    9.995       8.124       6.130       3.747      0.3644       1.402       1.439       1.075      0.5645      1.8758E-03
   6    9.995       8.194       6.344       4.409       2.539       2.070       1.663       1.164      0.5979      1.9868E-03
   7    9.995       8.314       6.642       5.021       3.598       2.690       1.979       1.318      0.6613      2.1971E-03
   8    9.996       8.426       6.888       5.434       4.147       3.113       2.246       1.467      0.7270      2.4151E-03
   9    9.996       8.504       7.051       5.681       4.443       3.367       2.426       1.575      0.7773      2.5820E-03
  10    9.996       8.543       7.130       5.795       4.575       3.486       2.514       1.631      0.8038      2.6702E-03

 HEAD WILL BE SAVED ON UNIT   51 AT END OF TIME STEP   62, STRESS PERIOD    3

 DRAWDOWN WILL BE SAVED ON UNIT   52 AT END OF TIME STEP   62, STRESS PERIOD    3
1
  VOLUMETRIC BUDGET FOR ENTIRE MODEL AT END OF TIME STEP   62, STRESS PERIOD   3
  ------------------------------------------------------------------------------

     CUMULATIVE VOLUMES      L**3       RATES FOR THIS TIME STEP      L**3/T
     ------------------                 ------------------------

           IN:                                      IN:
           ---                                      ---
             STORAGE =       30344.7500               STORAGE =           4.1997
       CONSTANT HEAD =           0.0000         CONSTANT HEAD =           0.0000
               WELLS =           0.0000                 WELLS =           0.0000
       RIVER LEAKAGE =       96948.7656         RIVER LEAKAGE =         830.6456

            TOTAL IN =      127293.5156              TOTAL IN =         834.8453

          OUT:                                     OUT:
          ----                                     ----
             STORAGE =       3.4015E-02               STORAGE =       4.0221E-04
       CONSTANT HEAD =           0.0000         CONSTANT HEAD =           0.0000
               WELLS =       31000.0000                 WELLS =         500.0000
       RIVER LEAKAGE =       96303.5234         RIVER LEAKAGE =         334.8766

           TOTAL OUT =      127303.5547             TOTAL OUT =         834.8770

            IN - OUT =         -10.0391              IN - OUT =      -3.1677E-02

 PERCENT DISCREPANCY =          -0.01     PERCENT DISCREPANCY =          -0.00






         TIME SUMMARY AT END OF TIME STEP   62 IN STRESS PERIOD    3
                    SECONDS     MINUTES      HOURS       DAYS        YEARS
                    -----------------------------------------------------------
   TIME STEP LENGTH  86400.      1440.0      24.000      1.0000     2.73785E-03
 STRESS PERIOD TIME 5.35680E+06  89280.      1488.0      62.000     0.16975    
         TOTAL TIME 1.40832E+07 2.34720E+05  3912.0      163.00     0.44627    
1

 SOLVING FOR HEAD 

 OUTPUT CONTROL FOR STRESS PERIOD    3   TIME STEP   63
    SAVE HEAD FOR ALL LAYERS
    SAVE DRAWDOWN FOR ALL LAYERS
    SAVE BUDGET
    PRINT HEAD FOR ALL LAYERS
    PRINT BUDGET
 UBDSV1 SAVING "         STORAGE" ON UNIT  53 AT TIME STEP 63, STRESS PERIOD   3
 UBDSV2 SAVING "   CONSTANT HEAD" ON UNIT  53 AT TIME STEP 63, STRESS PERIOD   3
 UBDSV1 SAVING "FLOW RIGHT FACE " ON UNIT  53 AT TIME STEP 63, STRESS PERIOD   3
 UBDSV1 SAVING "FLOW FRONT FACE " ON UNIT  53 AT TIME STEP 63, STRESS PERIOD   3
 UBDSV1 SAVING "FLOW LOWER FACE " ON UNIT  53 AT TIME STEP 63, STRESS PERIOD   3
1
              HEAD IN LAYER   1 AT END OF TIME STEP  63 IN STRESS PERIOD    3
  ---------------------------------------------------------------------------

            1           2           3           4           5           6           7           8           9          10
 ........................................................................................................................
   1    9.996       8.413       6.878       5.446       4.178       3.113       2.216       1.428      0.7017      2.3309E-03
   2    9.995       8.365       6.774       5.281       3.975       2.946       2.105       1.366      0.6747      2.2412E-03
   3    9.995       8.278       6.573       4.928       3.493       2.588       1.893       1.255      0.6286      2.0884E-03
   4    9.995       8.177       6.311       4.364       2.472       2.020       1.621       1.134      0.5821      1.9343E-03
   5    9.995       8.124       6.129       3.729     -0.3845       1.383       1.438       1.075      0.5642      1.8750E-03
   6    9.995       8.194       6.343       4.408       2.520       2.068       1.662       1.163      0.5977      1.9860E-03
   7    9.995       8.314       6.642       5.020       3.596       2.689       1.979       1.317      0.6611      2.1964E-03
   8    9.996       8.425       6.888       5.434       4.146       3.112       2.246       1.466      0.7268      2.4144E-03
   9    9.996       8.504       7.051       5.680       4.442       3.366       2.425       1.575      0.7771      2.5814E-03
  10    9.996       8.543       7.130       5.795       4.574       3.485       2.514       1.631      0.8036      2.6696E-03
1
              HEAD IN LAYER   2 AT END OF TIME STEP  63 IN STRESS PERIOD    3
  ---------------------------------------------------------------------------

            1           2           3           4           5           6           7           8           9          10
 ........................................................................................................................
   1    9.996       8.413       6.878       5.446       4.178       3.113       2.216       1.428      0.7017      2.3309E-03
   2    9.995       8.365       6.774       5.281       3.975       2.946       2.105       1.366      0.6746      2.2412E-03
   3    9.995       8.278       6.573       4.928       3.493       2.588       1.893       1.255      0.6286      2.0884E-03
   4    9.995       8.177       6.311       4.365       2.482       2.021       1.621       1.134      0.5821      1.9343E-03
   5    9.995       8.124       6.129       3.739      0.1204       1.393       1.438       1.075      0.5642      1.8750E-03
   6    9.995       8.194       6.343       4.408       2.530       2.068       1.662       1.163      0.5977      1.9860E-03
   7    9.995       8.314       6.642       5.020       3.596       2.689       1.979       1.317      0.6611      2.1964E-03
   8    9.996       8.425       6.888       5.434       4.146       3.112       2.246       1.466      0.7268      2.4144E-03
   9    9.996       8.504       7.051       5.680       4.442       3.366       2.425       1.575      0.7771      2.5814E-03
  10    9.996       8.543       7.130       5.795       4.574       3.485       2.514       1.631      0.8036      2.6696E-03
1
              HEAD IN LAYER   3 AT END OF TIME STEP  63 IN STRESS PERIOD    3
  ---------------------------------------------------------------------------

            1           2           3           4           5           6           7           8           9          10
 ........................................................................................................................
   1    9.996       8.413       6.878       5.446       4.178       3.113       2.216       1.428      0.7017      2.3309E-03
   2    9.995       8.365       6.774       5.281       3.975       2.946       2.105       1.366      0.6746      2.2412E-03
   3    9.995       8.278       6.573       4.928       3.493       2.588       1.893       1.255      0.6286      2.0884E-03
   4    9.995       8.177       6.311       4.365       2.490       2.021       1.621       1.134      0.5821      1.9343E-03
   5    9.995       8.124       6.129       3.746      0.3628       1.401       1.438       1.075      0.5642      1.8750E-03
   6    9.995       8.194       6.343       4.408       2.538       2.069       1.662       1.163      0.5977      1.9860E-03
   7    9.995       8.314       6.642       5.020       3.597       2.689       1.979       1.317      0.6611      2.1964E-03
   8    9.996       8.425       6.888       5.434       4.146       3.112       2.246       1.466      0.7268      2.4144E-03
   9    9.996       8.504       7.051       5.680       4.442       3.366       2.425       1.575      0.7771      2.5814E-03
  10    9.996       8.543       7.130       5.795       4.574       3.485       2.514       1.631      0.8036      2.6696E-03

 HEAD WILL BE SAVED ON UNIT   51 AT END OF TIME STEP   63, STRESS PERIOD    3

 DRAWDOWN WILL BE SAVED ON UNIT   52 AT END OF TIME STEP   63, STRESS PERIOD    3
1
  VOLUMETRIC BUDGET FOR ENTIRE MODEL AT END OF TIME STEP   63, STRESS PERIOD   3
  ------------------------------------------------------------------------------

     CUMULATIVE VOLUMES      L**3       RATES FOR THIS TIME STEP      L**3/T
     ------------------                 ------------------------

           IN:                                      IN:
           ---                                      ---
             STORAGE =       30348.7051               STORAGE =           3.9556
       CONSTANT HEAD =           0.0000         CONSTANT HEAD =           0.0000
               WELLS =           0.0000                 WELLS =           0.0000
       RIVER LEAKAGE =       97779.5391         RIVER LEAKAGE =         830.7742

            TOTAL IN =      128128.2422              TOTAL IN =         834.7298

          OUT:                                     OUT:
          ----                                     ----
             STORAGE =       3.4308E-02               STORAGE =       2.9308E-04
       CONSTANT HEAD =           0.0000         CONSTANT HEAD =           0.0000
               WELLS =       31500.0000                 WELLS =         500.0000
       RIVER LEAKAGE =       96638.2812         RIVER LEAKAGE =         334.7616

           TOTAL OUT =      128138.3125             TOTAL OUT =         834.7619

            IN - OUT =         -10.0703              IN - OUT =      -3.2104E-02

 PERCENT DISCREPANCY =          -0.01     PERCENT DISCREPANCY =          -0.00






         TIME SUMMARY AT END OF TIME STEP   63 IN STRESS PERIOD    3
                    SECONDS     MINUTES      HOURS       DAYS        YEARS
                    -----------------------------------------------------------
   TIME STEP LENGTH  86400.      1440.0      24.000      1.0000     2.73785E-03
 STRESS PERIOD TIME 5.44320E+06  90720.      1512.0      63.000     0.17248    
         TOTAL TIME 1.41696E+07 2.36160E+05  3936.0      164.00     0.44901    
1

 SOLVING FOR HEAD 

 OUTPUT CONTROL FOR STRESS PERIOD    3   TIME STEP   64
    SAVE HEAD FOR ALL LAYERS
    SAVE DRAWDOWN FOR ALL LAYERS
    SAVE BUDGET
    PRINT HEAD FOR ALL LAYERS
    PRINT BUDGET
 UBDSV1 SAVING "         STORAGE" ON UNIT  53 AT TIME STEP 64, STRESS PERIOD   3
 UBDSV2 SAVING "   CONSTANT HEAD" ON UNIT  53 AT TIME STEP 64, STRESS PERIOD   3
 UBDSV1 SAVING "FLOW RIGHT FACE " ON UNIT  53 AT TIME STEP 64, STRESS PERIOD   3
 UBDSV1 SAVING "FLOW FRONT FACE " ON UNIT  53 AT TIME STEP 64, STRESS PERIOD   3
 UBDSV1 SAVING "FLOW LOWER FACE " ON UNIT  53 AT TIME STEP 64, STRESS PERIOD   3
1
              HEAD IN LAYER   1 AT END OF TIME STEP  64 IN STRESS PERIOD    3
  ---------------------------------------------------------------------------

            1           2           3           4           5           6           7           8           9          10
 ........................................................................................................................
   1    9.996       8.413       6.877       5.445       4.178       3.113       2.215       1.427      0.7015      2.3302E-03
   2    9.995       8.365       6.774       5.280       3.974       2.945       2.105       1.365      0.6744      2.2404E-03
   3    9.995       8.277       6.572       4.927       3.492       2.588       1.892       1.255      0.6284      2.0876E-03
   4    9.995       8.177       6.311       4.364       2.471       2.020       1.621       1.133      0.5819      1.9335E-03
   5    9.995       8.124       6.128       3.728     -0.3862       1.382       1.437       1.074      0.5639      1.8741E-03
   6    9.995       8.194       6.343       4.407       2.519       2.067       1.662       1.163      0.5974      1.9852E-03
   7    9.995       8.314       6.641       5.019       3.595       2.688       1.978       1.317      0.6609      2.1956E-03
   8    9.996       8.425       6.888       5.433       4.146       3.111       2.245       1.466      0.7266      2.4138E-03
   9    9.996       8.504       7.050       5.680       4.441       3.366       2.425       1.575      0.7769      2.5807E-03
  10    9.996       8.543       7.129       5.794       4.574       3.484       2.513       1.631      0.8035      2.6690E-03
1
              HEAD IN LAYER   2 AT END OF TIME STEP  64 IN STRESS PERIOD    3
  ---------------------------------------------------------------------------

            1           2           3           4           5           6           7           8           9          10
 ........................................................................................................................
   1    9.996       8.413       6.877       5.445       4.178       3.113       2.215       1.427      0.7015      2.3302E-03
   2    9.995       8.365       6.774       5.280       3.974       2.945       2.105       1.365      0.6744      2.2404E-03
   3    9.995       8.277       6.572       4.927       3.492       2.588       1.892       1.255      0.6284      2.0876E-03
   4    9.995       8.177       6.311       4.364       2.481       2.020       1.621       1.133      0.5819      1.9335E-03
   5    9.995       8.124       6.129       3.738      0.1188       1.392       1.437       1.074      0.5639      1.8741E-03
   6    9.995       8.194       6.343       4.407       2.529       2.068       1.662       1.163      0.5974      1.9852E-03
   7    9.995       8.314       6.641       5.019       3.596       2.688       1.978       1.317      0.6609      2.1956E-03
   8    9.996       8.425       6.888       5.433       4.146       3.111       2.245       1.466      0.7266      2.4138E-03
   9    9.996       8.504       7.050       5.680       4.441       3.366       2.425       1.575      0.7769      2.5807E-03
  10    9.996       8.543       7.129       5.794       4.574       3.484       2.513       1.631      0.8035      2.6690E-03
1
              HEAD IN LAYER   3 AT END OF TIME STEP  64 IN STRESS PERIOD    3
  ---------------------------------------------------------------------------

            1           2           3           4           5           6           7           8           9          10
 ........................................................................................................................
   1    9.996       8.413       6.877       5.445       4.178       3.113       2.215       1.427      0.7015      2.3302E-03
   2    9.995       8.365       6.774       5.280       3.974       2.945       2.105       1.365      0.6744      2.2404E-03
   3    9.995       8.277       6.572       4.928       3.493       2.588       1.892       1.255      0.6284      2.0876E-03
   4    9.995       8.177       6.311       4.364       2.489       2.020       1.621       1.133      0.5819      1.9335E-03
   5    9.995       8.124       6.129       3.746      0.3613       1.400       1.437       1.074      0.5639      1.8741E-03
   6    9.995       8.194       6.343       4.408       2.537       2.068       1.662       1.163      0.5974      1.9852E-03
   7    9.995       8.314       6.641       5.020       3.596       2.688       1.978       1.317      0.6609      2.1956E-03
   8    9.996       8.425       6.888       5.433       4.146       3.111       2.245       1.466      0.7266      2.4138E-03
   9    9.996       8.504       7.050       5.680       4.441       3.366       2.425       1.575      0.7769      2.5807E-03
  10    9.996       8.543       7.129       5.794       4.574       3.484       2.513       1.631      0.8035      2.6690E-03

 HEAD WILL BE SAVED ON UNIT   51 AT END OF TIME STEP   64, STRESS PERIOD    3

 DRAWDOWN WILL BE SAVED ON UNIT   52 AT END OF TIME STEP   64, STRESS PERIOD    3
1
  VOLUMETRIC BUDGET FOR ENTIRE MODEL AT END OF TIME STEP   64, STRESS PERIOD   3
  ------------------------------------------------------------------------------

     CUMULATIVE VOLUMES      L**3       RATES FOR THIS TIME STEP      L**3/T
     ------------------                 ------------------------

           IN:                                      IN:
           ---                                      ---
             STORAGE =       30352.4316               STORAGE =           3.7259
       CONSTANT HEAD =           0.0000         CONSTANT HEAD =           0.0000
               WELLS =           0.0000                 WELLS =           0.0000
       RIVER LEAKAGE =       98610.4375         RIVER LEAKAGE =         830.8992

            TOTAL IN =      128962.8672              TOTAL IN =         834.6251

          OUT:                                     OUT:
          ----                                     ----
             STORAGE =       3.4556E-02               STORAGE =       2.4756E-04
       CONSTANT HEAD =           0.0000         CONSTANT HEAD =           0.0000
               WELLS =       32000.0000                 WELLS =         500.0000
       RIVER LEAKAGE =       96972.9375         RIVER LEAKAGE =         334.6534

           TOTAL OUT =      128972.9688             TOTAL OUT =         834.6536

            IN - OUT =         -10.1016              IN - OUT =      -2.8442E-02

 PERCENT DISCREPANCY =          -0.01     PERCENT DISCREPANCY =          -0.00






         TIME SUMMARY AT END OF TIME STEP   64 IN STRESS PERIOD    3
                    SECONDS     MINUTES      HOURS       DAYS        YEARS
                    -----------------------------------------------------------
   TIME STEP LENGTH  86400.      1440.0      24.000      1.0000     2.73785E-03
 STRESS PERIOD TIME 5.52960E+06  92160.      1536.0      64.000     0.17522    
         TOTAL TIME 1.42560E+07 2.37600E+05  3960.0      165.00     0.45175    
1

 SOLVING FOR HEAD 

 OUTPUT CONTROL FOR STRESS PERIOD    3   TIME STEP   65
    SAVE HEAD FOR ALL LAYERS
    SAVE DRAWDOWN FOR ALL LAYERS
    SAVE BUDGET
    PRINT HEAD FOR ALL LAYERS
    PRINT BUDGET
 UBDSV1 SAVING "         STORAGE" ON UNIT  53 AT TIME STEP 65, STRESS PERIOD   3
 UBDSV2 SAVING "   CONSTANT HEAD" ON UNIT  53 AT TIME STEP 65, STRESS PERIOD   3
 UBDSV1 SAVING "FLOW RIGHT FACE " ON UNIT  53 AT TIME STEP 65, STRESS PERIOD   3
 UBDSV1 SAVING "FLOW FRONT FACE " ON UNIT  53 AT TIME STEP 65, STRESS PERIOD   3
 UBDSV1 SAVING "FLOW LOWER FACE " ON UNIT  53 AT TIME STEP 65, STRESS PERIOD   3
1
              HEAD IN LAYER   1 AT END OF TIME STEP  65 IN STRESS PERIOD    3
  ---------------------------------------------------------------------------

            1           2           3           4           5           6           7           8           9          10
 ........................................................................................................................
   1    9.996       8.413       6.877       5.445       4.177       3.112       2.215       1.427      0.7013      2.3295E-03
   2    9.995       8.365       6.773       5.280       3.973       2.944       2.104       1.365      0.6742      2.2397E-03
   3    9.995       8.277       6.572       4.927       3.491       2.587       1.891       1.254      0.6282      2.0869E-03
   4    9.995       8.176       6.310       4.363       2.470       2.019       1.620       1.133      0.5817      1.9328E-03
   5    9.995       8.123       6.128       3.727     -0.3877       1.381       1.436       1.074      0.5637      1.8734E-03
   6    9.995       8.194       6.342       4.406       2.518       2.066       1.661       1.162      0.5972      1.9845E-03
   7    9.995       8.314       6.641       5.019       3.595       2.688       1.978       1.317      0.6607      2.1950E-03
   8    9.996       8.425       6.887       5.433       4.145       3.111       2.245       1.466      0.7264      2.4131E-03
   9    9.996       8.503       7.050       5.679       4.441       3.365       2.424       1.574      0.7767      2.5802E-03
  10    9.996       8.543       7.129       5.794       4.573       3.484       2.513       1.630      0.8033      2.6685E-03
1
              HEAD IN LAYER   2 AT END OF TIME STEP  65 IN STRESS PERIOD    3
  ---------------------------------------------------------------------------

            1           2           3           4           5           6           7           8           9          10
 ........................................................................................................................
   1    9.996       8.413       6.877       5.445       4.177       3.112       2.215       1.427      0.7013      2.3295E-03
   2    9.995       8.365       6.773       5.280       3.973       2.944       2.104       1.365      0.6742      2.2397E-03
   3    9.995       8.277       6.572       4.927       3.492       2.587       1.891       1.254      0.6282      2.0869E-03
   4    9.995       8.176       6.310       4.363       2.480       2.019       1.620       1.133      0.5817      1.9328E-03
   5    9.995       8.123       6.128       3.737      0.1174       1.391       1.436       1.074      0.5637      1.8734E-03
   6    9.995       8.194       6.342       4.406       2.528       2.067       1.661       1.162      0.5972      1.9845E-03
   7    9.995       8.314       6.641       5.019       3.595       2.688       1.978       1.317      0.6607      2.1950E-03
   8    9.996       8.425       6.887       5.433       4.145       3.111       2.245       1.466      0.7264      2.4131E-03
   9    9.996       8.503       7.050       5.679       4.441       3.365       2.424       1.574      0.7767      2.5802E-03
  10    9.996       8.543       7.129       5.794       4.573       3.484       2.513       1.630      0.8033      2.6685E-03
1
              HEAD IN LAYER   3 AT END OF TIME STEP  65 IN STRESS PERIOD    3
  ---------------------------------------------------------------------------

            1           2           3           4           5           6           7           8           9          10
 ........................................................................................................................
   1    9.996       8.413       6.877       5.445       4.177       3.112       2.215       1.427      0.7013      2.3295E-03
   2    9.995       8.365       6.773       5.280       3.973       2.944       2.104       1.365      0.6742      2.2397E-03
   3    9.995       8.277       6.572       4.927       3.492       2.587       1.891       1.254      0.6282      2.0869E-03
   4    9.995       8.176       6.310       4.364       2.488       2.020       1.620       1.133      0.5817      1.9328E-03
   5    9.995       8.123       6.128       3.745      0.3598       1.399       1.437       1.074      0.5637      1.8734E-03
   6    9.995       8.194       6.342       4.407       2.536       2.067       1.661       1.162      0.5972      1.9844E-03
   7    9.995       8.314       6.641       5.019       3.595       2.688       1.978       1.317      0.6607      2.1950E-03
   8    9.996       8.425       6.887       5.433       4.145       3.111       2.245       1.466      0.7264      2.4131E-03
   9    9.996       8.503       7.050       5.679       4.441       3.365       2.424       1.574      0.7767      2.5802E-03
  10    9.996       8.543       7.129       5.794       4.573       3.484       2.513       1.630      0.8033      2.6685E-03

 HEAD WILL BE SAVED ON UNIT   51 AT END OF TIME STEP   65, STRESS PERIOD    3

 DRAWDOWN WILL BE SAVED ON UNIT   52 AT END OF TIME STEP   65, STRESS PERIOD    3
1
  VOLUMETRIC BUDGET FOR ENTIRE MODEL AT END OF TIME STEP   65, STRESS PERIOD   3
  ------------------------------------------------------------------------------

     CUMULATIVE VOLUMES      L**3       RATES FOR THIS TIME STEP      L**3/T
     ------------------                 ------------------------

           IN:                                      IN:
           ---                                      ---
             STORAGE =       30355.9414               STORAGE =           3.5096
       CONSTANT HEAD =           0.0000         CONSTANT HEAD =           0.0000
               WELLS =           0.0000                 WELLS =           0.0000
       RIVER LEAKAGE =       99441.4531         RIVER LEAKAGE =         831.0133

            TOTAL IN =      129797.3906              TOTAL IN =         834.5229

          OUT:                                     OUT:
          ----                                     ----
             STORAGE =       3.4968E-02               STORAGE =       4.1236E-04
       CONSTANT HEAD =           0.0000         CONSTANT HEAD =           0.0000
               WELLS =       32500.0000                 WELLS =         500.0000
       RIVER LEAKAGE =       97307.4922         RIVER LEAKAGE =         334.5513

           TOTAL OUT =      129807.5312             TOTAL OUT =         834.5518

            IN - OUT =         -10.1406              IN - OUT =      -2.8870E-02

 PERCENT DISCREPANCY =          -0.01     PERCENT DISCREPANCY =          -0.00






         TIME SUMMARY AT END OF TIME STEP   65 IN STRESS PERIOD    3
                    SECONDS     MINUTES      HOURS       DAYS        YEARS
                    -----------------------------------------------------------
   TIME STEP LENGTH  86400.      1440.0      24.000      1.0000     2.73785E-03
 STRESS PERIOD TIME 5.61600E+06  93600.      1560.0      65.000     0.17796    
         TOTAL TIME 1.43424E+07 2.39040E+05  3984.0      166.00     0.45448    
1

 SOLVING FOR HEAD 

 OUTPUT CONTROL FOR STRESS PERIOD    3   TIME STEP   66
    SAVE HEAD FOR ALL LAYERS
    SAVE DRAWDOWN FOR ALL LAYERS
    SAVE BUDGET
    PRINT HEAD FOR ALL LAYERS
    PRINT BUDGET
 UBDSV1 SAVING "         STORAGE" ON UNIT  53 AT TIME STEP 66, STRESS PERIOD   3
 UBDSV2 SAVING "   CONSTANT HEAD" ON UNIT  53 AT TIME STEP 66, STRESS PERIOD   3
 UBDSV1 SAVING "FLOW RIGHT FACE " ON UNIT  53 AT TIME STEP 66, STRESS PERIOD   3
 UBDSV1 SAVING "FLOW FRONT FACE " ON UNIT  53 AT TIME STEP 66, STRESS PERIOD   3
 UBDSV1 SAVING "FLOW LOWER FACE " ON UNIT  53 AT TIME STEP 66, STRESS PERIOD   3
1
              HEAD IN LAYER   1 AT END OF TIME STEP  66 IN STRESS PERIOD    3
  ---------------------------------------------------------------------------

            1           2           3           4           5           6           7           8           9          10
 ........................................................................................................................
   1    9.996       8.412       6.877       5.444       4.176       3.112       2.214       1.427      0.7011      2.3289E-03
   2    9.995       8.365       6.773       5.279       3.973       2.944       2.103       1.365      0.6740      2.2391E-03
   3    9.995       8.277       6.572       4.926       3.491       2.586       1.891       1.254      0.6279      2.0862E-03
   4    9.995       8.176       6.310       4.362       2.469       2.018       1.619       1.132      0.5814      1.9320E-03
   5    9.995       8.123       6.127       3.726     -0.3892       1.380       1.436       1.073      0.5635      1.8727E-03
   6    9.995       8.193       6.342       4.405       2.517       2.066       1.660       1.162      0.5970      1.9838E-03
   7    9.995       8.314       6.640       5.018       3.594       2.687       1.977       1.316      0.6605      2.1943E-03
   8    9.996       8.425       6.887       5.432       4.144       3.110       2.244       1.465      0.7262      2.4125E-03
   9    9.996       8.503       7.050       5.679       4.440       3.365       2.424       1.574      0.7765      2.5796E-03
  10    9.996       8.543       7.129       5.794       4.573       3.483       2.513       1.630      0.8031      2.6679E-03
1
              HEAD IN LAYER   2 AT END OF TIME STEP  66 IN STRESS PERIOD    3
  ---------------------------------------------------------------------------

            1           2           3           4           5           6           7           8           9          10
 ........................................................................................................................
   1    9.996       8.412       6.877       5.444       4.176       3.112       2.214       1.427      0.7011      2.3289E-03
   2    9.995       8.365       6.773       5.279       3.973       2.944       2.103       1.365      0.6740      2.2391E-03
   3    9.995       8.277       6.572       4.926       3.491       2.586       1.891       1.254      0.6279      2.0862E-03
   4    9.995       8.176       6.310       4.363       2.479       2.018       1.619       1.132      0.5814      1.9320E-03
   5    9.995       8.123       6.128       3.736      0.1160       1.390       1.436       1.073      0.5635      1.8727E-03
   6    9.995       8.193       6.342       4.406       2.527       2.066       1.660       1.162      0.5970      1.9838E-03
   7    9.995       8.314       6.640       5.018       3.594       2.687       1.977       1.316      0.6605      2.1943E-03
   8    9.996       8.425       6.887       5.432       4.144       3.110       2.244       1.465      0.7262      2.4125E-03
   9    9.996       8.503       7.050       5.679       4.440       3.365       2.424       1.574      0.7765      2.5796E-03
  10    9.996       8.543       7.129       5.794       4.573       3.483       2.513       1.630      0.8031      2.6679E-03
1
              HEAD IN LAYER   3 AT END OF TIME STEP  66 IN STRESS PERIOD    3
  ---------------------------------------------------------------------------

            1           2           3           4           5           6           7           8           9          10
 ........................................................................................................................
   1    9.996       8.412       6.877       5.444       4.176       3.112       2.214       1.427      0.7011      2.3289E-03
   2    9.995       8.365       6.773       5.279       3.973       2.944       2.103       1.365      0.6740      2.2391E-03
   3    9.995       8.277       6.572       4.926       3.491       2.586       1.891       1.254      0.6279      2.0862E-03
   4    9.995       8.176       6.310       4.363       2.487       2.019       1.619       1.132      0.5814      1.9320E-03
   5    9.995       8.123       6.128       3.744      0.3585       1.398       1.436       1.073      0.5635      1.8726E-03
   6    9.995       8.193       6.342       4.406       2.535       2.066       1.660       1.162      0.5970      1.9837E-03
   7    9.995       8.314       6.640       5.018       3.595       2.687       1.977       1.316      0.6605      2.1943E-03
   8    9.996       8.425       6.887       5.432       4.144       3.110       2.244       1.465      0.7262      2.4125E-03
   9    9.996       8.503       7.050       5.679       4.440       3.365       2.424       1.574      0.7765      2.5796E-03
  10    9.996       8.543       7.129       5.794       4.573       3.483       2.513       1.630      0.8031      2.6679E-03

 HEAD WILL BE SAVED ON UNIT   51 AT END OF TIME STEP   66, STRESS PERIOD    3

 DRAWDOWN WILL BE SAVED ON UNIT   52 AT END OF TIME STEP   66, STRESS PERIOD    3
1
  VOLUMETRIC BUDGET FOR ENTIRE MODEL AT END OF TIME STEP   66, STRESS PERIOD   3
  ------------------------------------------------------------------------------

     CUMULATIVE VOLUMES      L**3       RATES FOR THIS TIME STEP      L**3/T
     ------------------                 ------------------------

           IN:                                      IN:
           ---                                      ---
             STORAGE =       30359.2461               STORAGE =           3.3056
       CONSTANT HEAD =           0.0000         CONSTANT HEAD =           0.0000
               WELLS =           0.0000                 WELLS =           0.0000
       RIVER LEAKAGE =      100272.5703         RIVER LEAKAGE =         831.1208

            TOTAL IN =      130631.8125              TOTAL IN =         834.4264

          OUT:                                     OUT:
          ----                                     ----
             STORAGE =       3.5349E-02               STORAGE =       3.8065E-04
       CONSTANT HEAD =           0.0000         CONSTANT HEAD =           0.0000
               WELLS =       33000.0000                 WELLS =         500.0000
       RIVER LEAKAGE =       97641.9453         RIVER LEAKAGE =         334.4552

           TOTAL OUT =      130641.9844             TOTAL OUT =         834.4556

            IN - OUT =         -10.1719              IN - OUT =      -2.9175E-02

 PERCENT DISCREPANCY =          -0.01     PERCENT DISCREPANCY =          -0.00






         TIME SUMMARY AT END OF TIME STEP   66 IN STRESS PERIOD    3
                    SECONDS     MINUTES      HOURS       DAYS        YEARS
                    -----------------------------------------------------------
   TIME STEP LENGTH  86400.      1440.0      24.000      1.0000     2.73785E-03
 STRESS PERIOD TIME 5.70240E+06  95040.      1584.0      66.000     0.18070    
         TOTAL TIME 1.44288E+07 2.40480E+05  4008.0      167.00     0.45722    
1

 SOLVING FOR HEAD 

 OUTPUT CONTROL FOR STRESS PERIOD    3   TIME STEP   67
    SAVE HEAD FOR ALL LAYERS
    SAVE DRAWDOWN FOR ALL LAYERS
    SAVE BUDGET
    PRINT HEAD FOR ALL LAYERS
    PRINT BUDGET
 UBDSV1 SAVING "         STORAGE" ON UNIT  53 AT TIME STEP 67, STRESS PERIOD   3
 UBDSV2 SAVING "   CONSTANT HEAD" ON UNIT  53 AT TIME STEP 67, STRESS PERIOD   3
 UBDSV1 SAVING "FLOW RIGHT FACE " ON UNIT  53 AT TIME STEP 67, STRESS PERIOD   3
 UBDSV1 SAVING "FLOW FRONT FACE " ON UNIT  53 AT TIME STEP 67, STRESS PERIOD   3
 UBDSV1 SAVING "FLOW LOWER FACE " ON UNIT  53 AT TIME STEP 67, STRESS PERIOD   3
1
              HEAD IN LAYER   1 AT END OF TIME STEP  67 IN STRESS PERIOD    3
  ---------------------------------------------------------------------------

            1           2           3           4           5           6           7           8           9          10
 ........................................................................................................................
   1    9.996       8.412       6.876       5.444       4.176       3.111       2.214       1.426      0.7009      2.3283E-03
   2    9.995       8.364       6.773       5.279       3.972       2.943       2.103       1.364      0.6738      2.2385E-03
   3    9.995       8.277       6.571       4.926       3.490       2.585       1.890       1.254      0.6278      2.0856E-03
   4    9.995       8.176       6.309       4.361       2.468       2.017       1.619       1.132      0.5812      1.9314E-03
   5    9.995       8.123       6.127       3.725     -0.3906       1.379       1.435       1.073      0.5633      1.8720E-03
   6    9.995       8.193       6.341       4.405       2.517       2.065       1.660       1.161      0.5968      1.9831E-03
   7    9.995       8.313       6.640       5.018       3.593       2.686       1.977       1.316      0.6603      2.1937E-03
   8    9.996       8.425       6.886       5.432       4.144       3.110       2.244       1.465      0.7261      2.4120E-03
   9    9.996       8.503       7.049       5.679       4.440       3.364       2.424       1.574      0.7764      2.5791E-03
  10    9.996       8.543       7.128       5.793       4.572       3.483       2.512       1.630      0.8030      2.6674E-03
1
              HEAD IN LAYER   2 AT END OF TIME STEP  67 IN STRESS PERIOD    3
  ---------------------------------------------------------------------------

            1           2           3           4           5           6           7           8           9          10
 ........................................................................................................................
   1    9.996       8.412       6.876       5.444       4.176       3.111       2.214       1.426      0.7009      2.3283E-03
   2    9.995       8.364       6.773       5.279       3.972       2.943       2.103       1.364      0.6738      2.2385E-03
   3    9.995       8.277       6.571       4.926       3.490       2.586       1.890       1.254      0.6278      2.0856E-03
   4    9.995       8.176       6.309       4.362       2.478       2.018       1.619       1.132      0.5812      1.9314E-03
   5    9.995       8.123       6.127       3.735      0.1147       1.389       1.435       1.073      0.5633      1.8720E-03
   6    9.995       8.193       6.341       4.405       2.527       2.065       1.660       1.161      0.5968      1.9831E-03
   7    9.995       8.313       6.640       5.018       3.594       2.686       1.977       1.316      0.6603      2.1937E-03
   8    9.996       8.425       6.886       5.432       4.144       3.110       2.244       1.465      0.7261      2.4120E-03
   9    9.996       8.503       7.049       5.679       4.440       3.364       2.424       1.574      0.7764      2.5791E-03
  10    9.996       8.543       7.128       5.793       4.572       3.483       2.512       1.630      0.8030      2.6674E-03
1
              HEAD IN LAYER   3 AT END OF TIME STEP  67 IN STRESS PERIOD    3
  ---------------------------------------------------------------------------

            1           2           3           4           5           6           7           8           9          10
 ........................................................................................................................
   1    9.996       8.412       6.876       5.444       4.176       3.111       2.214       1.426      0.7009      2.3283E-03
   2    9.995       8.364       6.773       5.279       3.972       2.943       2.103       1.364      0.6738      2.2385E-03
   3    9.995       8.277       6.571       4.926       3.491       2.586       1.890       1.254      0.6278      2.0856E-03
   4    9.995       8.176       6.309       4.362       2.486       2.018       1.619       1.132      0.5812      1.9314E-03
   5    9.995       8.123       6.127       3.743      0.3572       1.397       1.435       1.073      0.5633      1.8720E-03
   6    9.995       8.193       6.341       4.405       2.534       2.066       1.660       1.161      0.5968      1.9831E-03
   7    9.995       8.313       6.640       5.018       3.594       2.686       1.977       1.316      0.6603      2.1937E-03
   8    9.996       8.425       6.886       5.432       4.144       3.110       2.244       1.465      0.7261      2.4120E-03
   9    9.996       8.503       7.049       5.679       4.440       3.364       2.424       1.574      0.7764      2.5791E-03
  10    9.996       8.543       7.128       5.793       4.572       3.483       2.512       1.630      0.8030      2.6674E-03

 HEAD WILL BE SAVED ON UNIT   51 AT END OF TIME STEP   67, STRESS PERIOD    3

 DRAWDOWN WILL BE SAVED ON UNIT   52 AT END OF TIME STEP   67, STRESS PERIOD    3
1
  VOLUMETRIC BUDGET FOR ENTIRE MODEL AT END OF TIME STEP   67, STRESS PERIOD   3
  ------------------------------------------------------------------------------

     CUMULATIVE VOLUMES      L**3       RATES FOR THIS TIME STEP      L**3/T
     ------------------                 ------------------------

           IN:                                      IN:
           ---                                      ---
             STORAGE =       30362.3594               STORAGE =           3.1138
       CONSTANT HEAD =           0.0000         CONSTANT HEAD =           0.0000
               WELLS =           0.0000                 WELLS =           0.0000
       RIVER LEAKAGE =      101103.7891         RIVER LEAKAGE =         831.2220

            TOTAL IN =      131466.1562              TOTAL IN =         834.3358

          OUT:                                     OUT:
          ----                                     ----
             STORAGE =       3.5740E-02               STORAGE =       3.9128E-04
       CONSTANT HEAD =           0.0000         CONSTANT HEAD =           0.0000
               WELLS =       33500.0000                 WELLS =         500.0000
       RIVER LEAKAGE =       97976.3125         RIVER LEAKAGE =         334.3648

           TOTAL OUT =      131476.3438             TOTAL OUT =         834.3652

            IN - OUT =         -10.1875              IN - OUT =      -2.9358E-02

 PERCENT DISCREPANCY =          -0.01     PERCENT DISCREPANCY =          -0.00






         TIME SUMMARY AT END OF TIME STEP   67 IN STRESS PERIOD    3
                    SECONDS     MINUTES      HOURS       DAYS        YEARS
                    -----------------------------------------------------------
   TIME STEP LENGTH  86400.      1440.0      24.000      1.0000     2.73785E-03
 STRESS PERIOD TIME 5.78880E+06  96480.      1608.0      67.000     0.18344    
         TOTAL TIME 1.45152E+07 2.41920E+05  4032.0      168.00     0.45996    
1

 SOLVING FOR HEAD 

 OUTPUT CONTROL FOR STRESS PERIOD    3   TIME STEP   68
    SAVE HEAD FOR ALL LAYERS
    SAVE DRAWDOWN FOR ALL LAYERS
    SAVE BUDGET
    PRINT HEAD FOR ALL LAYERS
    PRINT BUDGET
 UBDSV1 SAVING "         STORAGE" ON UNIT  53 AT TIME STEP 68, STRESS PERIOD   3
 UBDSV2 SAVING "   CONSTANT HEAD" ON UNIT  53 AT TIME STEP 68, STRESS PERIOD   3
 UBDSV1 SAVING "FLOW RIGHT FACE " ON UNIT  53 AT TIME STEP 68, STRESS PERIOD   3
 UBDSV1 SAVING "FLOW FRONT FACE " ON UNIT  53 AT TIME STEP 68, STRESS PERIOD   3
 UBDSV1 SAVING "FLOW LOWER FACE " ON UNIT  53 AT TIME STEP 68, STRESS PERIOD   3
1
              HEAD IN LAYER   1 AT END OF TIME STEP  68 IN STRESS PERIOD    3
  ---------------------------------------------------------------------------

            1           2           3           4           5           6           7           8           9          10
 ........................................................................................................................
   1    9.996       8.412       6.876       5.443       4.175       3.110       2.213       1.426      0.7007      2.3277E-03
   2    9.995       8.364       6.772       5.278       3.972       2.942       2.102       1.364      0.6737      2.2379E-03
   3    9.995       8.277       6.571       4.925       3.489       2.585       1.890       1.253      0.6276      2.0850E-03
   4    9.995       8.176       6.309       4.361       2.467       2.017       1.618       1.131      0.5811      1.9307E-03
   5    9.995       8.123       6.126       3.725     -0.3919       1.378       1.434       1.073      0.5631      1.8713E-03
   6    9.995       8.193       6.341       4.404       2.516       2.064       1.659       1.161      0.5966      1.9825E-03
   7    9.995       8.313       6.639       5.017       3.593       2.686       1.976       1.316      0.6601      2.1931E-03
   8    9.996       8.425       6.886       5.431       4.143       3.109       2.243       1.465      0.7259      2.4115E-03
   9    9.996       8.503       7.049       5.678       4.439       3.364       2.423       1.573      0.7762      2.5786E-03
  10    9.996       8.542       7.128       5.793       4.572       3.483       2.512       1.629      0.8028      2.6670E-03
1
              HEAD IN LAYER   2 AT END OF TIME STEP  68 IN STRESS PERIOD    3
  ---------------------------------------------------------------------------

            1           2           3           4           5           6           7           8           9          10
 ........................................................................................................................
   1    9.996       8.412       6.876       5.443       4.175       3.110       2.213       1.426      0.7007      2.3277E-03
   2    9.995       8.364       6.772       5.278       3.972       2.942       2.102       1.364      0.6737      2.2379E-03
   3    9.995       8.277       6.571       4.925       3.490       2.585       1.890       1.253      0.6276      2.0850E-03
   4    9.995       8.176       6.309       4.361       2.477       2.017       1.618       1.131      0.5811      1.9307E-03
   5    9.995       8.123       6.127       3.734      0.1134       1.388       1.435       1.073      0.5631      1.8713E-03
   6    9.995       8.193       6.341       4.404       2.526       2.065       1.659       1.161      0.5966      1.9825E-03
   7    9.995       8.313       6.639       5.017       3.593       2.686       1.976       1.316      0.6601      2.1931E-03
   8    9.996       8.425       6.886       5.431       4.143       3.109       2.243       1.465      0.7259      2.4115E-03
   9    9.996       8.503       7.049       5.678       4.439       3.364       2.423       1.573      0.7762      2.5786E-03
  10    9.996       8.542       7.128       5.793       4.572       3.483       2.512       1.629      0.8028      2.6670E-03
1
              HEAD IN LAYER   3 AT END OF TIME STEP  68 IN STRESS PERIOD    3
  ---------------------------------------------------------------------------

            1           2           3           4           5           6           7           8           9          10
 ........................................................................................................................
   1    9.996       8.412       6.876       5.443       4.175       3.110       2.213       1.426      0.7007      2.3277E-03
   2    9.995       8.364       6.772       5.278       3.972       2.942       2.102       1.364      0.6737      2.2379E-03
   3    9.995       8.277       6.571       4.925       3.490       2.585       1.890       1.253      0.6276      2.0850E-03
   4    9.995       8.176       6.309       4.362       2.485       2.017       1.618       1.131      0.5811      1.9307E-03
   5    9.995       8.123       6.127       3.742      0.3560       1.396       1.435       1.073      0.5631      1.8713E-03
   6    9.995       8.193       6.341       4.405       2.534       2.065       1.659       1.161      0.5966      1.9825E-03
   7    9.995       8.313       6.639       5.017       3.593       2.686       1.976       1.316      0.6601      2.1931E-03
   8    9.996       8.425       6.886       5.431       4.143       3.109       2.243       1.465      0.7259      2.4115E-03
   9    9.996       8.503       7.049       5.678       4.439       3.364       2.423       1.573      0.7762      2.5786E-03
  10    9.996       8.542       7.128       5.793       4.572       3.483       2.512       1.629      0.8028      2.6670E-03

 HEAD WILL BE SAVED ON UNIT   51 AT END OF TIME STEP   68, STRESS PERIOD    3

 DRAWDOWN WILL BE SAVED ON UNIT   52 AT END OF TIME STEP   68, STRESS PERIOD    3
1
  VOLUMETRIC BUDGET FOR ENTIRE MODEL AT END OF TIME STEP   68, STRESS PERIOD   3
  ------------------------------------------------------------------------------

     CUMULATIVE VOLUMES      L**3       RATES FOR THIS TIME STEP      L**3/T
     ------------------                 ------------------------

           IN:                                      IN:
           ---                                      ---
             STORAGE =       30365.2930               STORAGE =           2.9329
       CONSTANT HEAD =           0.0000         CONSTANT HEAD =           0.0000
               WELLS =           0.0000                 WELLS =           0.0000
       RIVER LEAKAGE =      101935.1094         RIVER LEAKAGE =         831.3173

            TOTAL IN =      132300.4062              TOTAL IN =         834.2502

          OUT:                                     OUT:
          ----                                     ----
             STORAGE =       3.6152E-02               STORAGE =       4.1198E-04
       CONSTANT HEAD =           0.0000         CONSTANT HEAD =           0.0000
               WELLS =       34000.0000                 WELLS =         500.0000
       RIVER LEAKAGE =       98310.5938         RIVER LEAKAGE =         334.2797

           TOTAL OUT =      132310.6250             TOTAL OUT =         834.2800

            IN - OUT =         -10.2188              IN - OUT =      -2.9846E-02

 PERCENT DISCREPANCY =          -0.01     PERCENT DISCREPANCY =          -0.00






         TIME SUMMARY AT END OF TIME STEP   68 IN STRESS PERIOD    3
                    SECONDS     MINUTES      HOURS       DAYS        YEARS
                    -----------------------------------------------------------
   TIME STEP LENGTH  86400.      1440.0      24.000      1.0000     2.73785E-03
 STRESS PERIOD TIME 5.87520E+06  97920.      1632.0      68.000     0.18617    
         TOTAL TIME 1.46016E+07 2.43360E+05  4056.0      169.00     0.46270    
1

 SOLVING FOR HEAD 

 OUTPUT CONTROL FOR STRESS PERIOD    3   TIME STEP   69
    SAVE HEAD FOR ALL LAYERS
    SAVE DRAWDOWN FOR ALL LAYERS
    SAVE BUDGET
    PRINT HEAD FOR ALL LAYERS
    PRINT BUDGET
 UBDSV1 SAVING "         STORAGE" ON UNIT  53 AT TIME STEP 69, STRESS PERIOD   3
 UBDSV2 SAVING "   CONSTANT HEAD" ON UNIT  53 AT TIME STEP 69, STRESS PERIOD   3
 UBDSV1 SAVING "FLOW RIGHT FACE " ON UNIT  53 AT TIME STEP 69, STRESS PERIOD   3
 UBDSV1 SAVING "FLOW FRONT FACE " ON UNIT  53 AT TIME STEP 69, STRESS PERIOD   3
 UBDSV1 SAVING "FLOW LOWER FACE " ON UNIT  53 AT TIME STEP 69, STRESS PERIOD   3
1
              HEAD IN LAYER   1 AT END OF TIME STEP  69 IN STRESS PERIOD    3
  ---------------------------------------------------------------------------

            1           2           3           4           5           6           7           8           9          10
 ........................................................................................................................
   1    9.996       8.412       6.876       5.443       4.175       3.110       2.213       1.426      0.7006      2.3272E-03
   2    9.995       8.364       6.772       5.278       3.971       2.942       2.102       1.364      0.6735      2.2374E-03
   3    9.995       8.276       6.570       4.925       3.489       2.584       1.889       1.253      0.6274      2.0844E-03
   4    9.995       8.176       6.308       4.360       2.466       2.016       1.618       1.131      0.5809      1.9301E-03
   5    9.995       8.122       6.126       3.724     -0.3931       1.377       1.434       1.072      0.5629      1.8707E-03
   6    9.995       8.193       6.341       4.403       2.515       2.063       1.659       1.161      0.5965      1.9819E-03
   7    9.995       8.313       6.639       5.017       3.592       2.685       1.976       1.315      0.6600      2.1926E-03
   8    9.996       8.424       6.886       5.431       4.143       3.109       2.243       1.464      0.7258      2.4110E-03
   9    9.996       8.503       7.049       5.678       4.439       3.363       2.423       1.573      0.7761      2.5781E-03
  10    9.996       8.542       7.128       5.792       4.571       3.482       2.512       1.629      0.8027      2.6665E-03
1
              HEAD IN LAYER   2 AT END OF TIME STEP  69 IN STRESS PERIOD    3
  ---------------------------------------------------------------------------

            1           2           3           4           5           6           7           8           9          10
 ........................................................................................................................
   1    9.996       8.412       6.876       5.443       4.175       3.110       2.213       1.426      0.7006      2.3272E-03
   2    9.995       8.364       6.772       5.278       3.971       2.942       2.102       1.364      0.6735      2.2374E-03
   3    9.995       8.276       6.570       4.925       3.489       2.584       1.889       1.253      0.6274      2.0844E-03
   4    9.995       8.176       6.308       4.361       2.476       2.016       1.618       1.131      0.5809      1.9301E-03
   5    9.995       8.122       6.126       3.734      0.1123       1.387       1.434       1.072      0.5629      1.8707E-03
   6    9.995       8.193       6.341       4.404       2.525       2.064       1.659       1.161      0.5965      1.9819E-03
   7    9.995       8.313       6.639       5.017       3.592       2.685       1.976       1.315      0.6600      2.1926E-03
   8    9.996       8.424       6.886       5.431       4.143       3.109       2.243       1.464      0.7258      2.4110E-03
   9    9.996       8.503       7.049       5.678       4.439       3.363       2.423       1.573      0.7761      2.5781E-03
  10    9.996       8.542       7.128       5.792       4.571       3.482       2.512       1.629      0.8027      2.6665E-03
1
              HEAD IN LAYER   3 AT END OF TIME STEP  69 IN STRESS PERIOD    3
  ---------------------------------------------------------------------------

            1           2           3           4           5           6           7           8           9          10
 ........................................................................................................................
   1    9.996       8.412       6.876       5.443       4.175       3.110       2.213       1.426      0.7006      2.3272E-03
   2    9.995       8.364       6.772       5.278       3.971       2.942       2.102       1.364      0.6735      2.2374E-03
   3    9.995       8.276       6.570       4.925       3.489       2.584       1.889       1.253      0.6274      2.0844E-03
   4    9.995       8.176       6.308       4.361       2.484       2.017       1.618       1.131      0.5809      1.9301E-03
   5    9.995       8.122       6.126       3.742      0.3549       1.395       1.434       1.072      0.5629      1.8707E-03
   6    9.995       8.193       6.341       4.404       2.533       2.064       1.659       1.161      0.5965      1.9819E-03
   7    9.995       8.313       6.639       5.017       3.593       2.685       1.976       1.315      0.6600      2.1926E-03
   8    9.996       8.424       6.886       5.431       4.143       3.109       2.243       1.464      0.7258      2.4110E-03
   9    9.996       8.503       7.049       5.678       4.439       3.363       2.423       1.573      0.7761      2.5781E-03
  10    9.996       8.542       7.128       5.792       4.571       3.482       2.512       1.629      0.8027      2.6665E-03

 HEAD WILL BE SAVED ON UNIT   51 AT END OF TIME STEP   69, STRESS PERIOD    3

 DRAWDOWN WILL BE SAVED ON UNIT   52 AT END OF TIME STEP   69, STRESS PERIOD    3
1
  VOLUMETRIC BUDGET FOR ENTIRE MODEL AT END OF TIME STEP   69, STRESS PERIOD   3
  ------------------------------------------------------------------------------

     CUMULATIVE VOLUMES      L**3       RATES FOR THIS TIME STEP      L**3/T
     ------------------                 ------------------------

           IN:                                      IN:
           ---                                      ---
             STORAGE =       30368.0566               STORAGE =           2.7629
       CONSTANT HEAD =           0.0000         CONSTANT HEAD =           0.0000
               WELLS =           0.0000                 WELLS =           0.0000
       RIVER LEAKAGE =      102766.5156         RIVER LEAKAGE =         831.4070

            TOTAL IN =      133134.5781              TOTAL IN =         834.1699

          OUT:                                     OUT:
          ----                                     ----
             STORAGE =       3.6406E-02               STORAGE =       2.5368E-04
       CONSTANT HEAD =           0.0000         CONSTANT HEAD =           0.0000
               WELLS =       34500.0000                 WELLS =         500.0000
       RIVER LEAKAGE =       98644.7969         RIVER LEAKAGE =         334.1995

           TOTAL OUT =      133144.8281             TOTAL OUT =         834.1997

            IN - OUT =         -10.2500              IN - OUT =      -2.9785E-02

 PERCENT DISCREPANCY =          -0.01     PERCENT DISCREPANCY =          -0.00






         TIME SUMMARY AT END OF TIME STEP   69 IN STRESS PERIOD    3
                    SECONDS     MINUTES      HOURS       DAYS        YEARS
                    -----------------------------------------------------------
   TIME STEP LENGTH  86400.      1440.0      24.000      1.0000     2.73785E-03
 STRESS PERIOD TIME 5.96160E+06  99360.      1656.0      69.000     0.18891    
         TOTAL TIME 1.46880E+07 2.44800E+05  4080.0      170.00     0.46543    
1

 SOLVING FOR HEAD 

 OUTPUT CONTROL FOR STRESS PERIOD    3   TIME STEP   70
    SAVE HEAD FOR ALL LAYERS
    SAVE DRAWDOWN FOR ALL LAYERS
    SAVE BUDGET
    PRINT HEAD FOR ALL LAYERS
    PRINT BUDGET
 UBDSV1 SAVING "         STORAGE" ON UNIT  53 AT TIME STEP 70, STRESS PERIOD   3
 UBDSV2 SAVING "   CONSTANT HEAD" ON UNIT  53 AT TIME STEP 70, STRESS PERIOD   3
 UBDSV1 SAVING "FLOW RIGHT FACE " ON UNIT  53 AT TIME STEP 70, STRESS PERIOD   3
 UBDSV1 SAVING "FLOW FRONT FACE " ON UNIT  53 AT TIME STEP 70, STRESS PERIOD   3
 UBDSV1 SAVING "FLOW LOWER FACE " ON UNIT  53 AT TIME STEP 70, STRESS PERIOD   3
1
              HEAD IN LAYER   1 AT END OF TIME STEP  70 IN STRESS PERIOD    3
  ---------------------------------------------------------------------------

            1           2           3           4           5           6           7           8           9          10
 ........................................................................................................................
   1    9.996       8.412       6.875       5.442       4.174       3.110       2.212       1.425      0.7004      2.3267E-03
   2    9.995       8.364       6.772       5.277       3.971       2.941       2.102       1.363      0.6734      2.2369E-03
   3    9.995       8.276       6.570       4.924       3.488       2.584       1.889       1.253      0.6272      2.0839E-03
   4    9.995       8.175       6.308       4.360       2.466       2.015       1.617       1.131      0.5807      1.9296E-03
   5    9.995       8.122       6.126       3.723     -0.3943       1.376       1.433       1.072      0.5627      1.8702E-03
   6    9.995       8.193       6.340       4.403       2.514       2.063       1.658       1.160      0.5963      1.9814E-03
   7    9.995       8.313       6.639       5.016       3.592       2.685       1.975       1.315      0.6598      2.1921E-03
   8    9.996       8.424       6.886       5.431       4.142       3.108       2.243       1.464      0.7256      2.4105E-03
   9    9.996       8.503       7.048       5.677       4.439       3.363       2.423       1.573      0.7760      2.5777E-03
  10    9.996       8.542       7.128       5.792       4.571       3.482       2.511       1.629      0.8026      2.6661E-03
1
              HEAD IN LAYER   2 AT END OF TIME STEP  70 IN STRESS PERIOD    3
  ---------------------------------------------------------------------------

            1           2           3           4           5           6           7           8           9          10
 ........................................................................................................................
   1    9.996       8.412       6.875       5.442       4.174       3.110       2.212       1.425      0.7004      2.3267E-03
   2    9.995       8.364       6.772       5.277       3.971       2.941       2.102       1.363      0.6734      2.2369E-03
   3    9.995       8.276       6.570       4.924       3.488       2.584       1.889       1.253      0.6272      2.0839E-03
   4    9.995       8.175       6.308       4.360       2.476       2.016       1.617       1.131      0.5807      1.9296E-03
   5    9.995       8.122       6.126       3.733      0.1112       1.387       1.434       1.072      0.5627      1.8702E-03
   6    9.995       8.193       6.340       4.403       2.524       2.063       1.658       1.160      0.5963      1.9814E-03
   7    9.995       8.313       6.639       5.016       3.592       2.685       1.975       1.315      0.6598      2.1921E-03
   8    9.996       8.424       6.886       5.431       4.142       3.108       2.243       1.464      0.7256      2.4105E-03
   9    9.996       8.503       7.048       5.677       4.439       3.363       2.423       1.573      0.7760      2.5777E-03
  10    9.996       8.542       7.128       5.792       4.571       3.482       2.511       1.629      0.8026      2.6661E-03
1
              HEAD IN LAYER   3 AT END OF TIME STEP  70 IN STRESS PERIOD    3
  ---------------------------------------------------------------------------

            1           2           3           4           5           6           7           8           9          10
 ........................................................................................................................
   1    9.996       8.412       6.875       5.442       4.174       3.110       2.212       1.425      0.7004      2.3267E-03
   2    9.995       8.364       6.772       5.277       3.971       2.941       2.102       1.363      0.6734      2.2369E-03
   3    9.995       8.276       6.570       4.924       3.489       2.584       1.889       1.253      0.6272      2.0838E-03
   4    9.995       8.175       6.308       4.360       2.484       2.016       1.617       1.131      0.5807      1.9296E-03
   5    9.995       8.122       6.126       3.741      0.3539       1.395       1.434       1.072      0.5627      1.8702E-03
   6    9.995       8.193       6.340       4.404       2.532       2.064       1.658       1.160      0.5963      1.9814E-03
   7    9.995       8.313       6.639       5.016       3.592       2.685       1.975       1.315      0.6598      2.1921E-03
   8    9.996       8.424       6.886       5.431       4.142       3.108       2.243       1.464      0.7256      2.4105E-03
   9    9.996       8.503       7.048       5.677       4.439       3.363       2.423       1.573      0.7760      2.5777E-03
  10    9.996       8.542       7.128       5.792       4.571       3.482       2.511       1.629      0.8026      2.6661E-03

 HEAD WILL BE SAVED ON UNIT   51 AT END OF TIME STEP   70, STRESS PERIOD    3

 DRAWDOWN WILL BE SAVED ON UNIT   52 AT END OF TIME STEP   70, STRESS PERIOD    3
1
  VOLUMETRIC BUDGET FOR ENTIRE MODEL AT END OF TIME STEP   70, STRESS PERIOD   3
  ------------------------------------------------------------------------------

     CUMULATIVE VOLUMES      L**3       RATES FOR THIS TIME STEP      L**3/T
     ------------------                 ------------------------

           IN:                                      IN:
           ---                                      ---
             STORAGE =       30370.6602               STORAGE =           2.6025
       CONSTANT HEAD =           0.0000         CONSTANT HEAD =           0.0000
               WELLS =           0.0000                 WELLS =           0.0000
       RIVER LEAKAGE =      103598.0078         RIVER LEAKAGE =         831.4915

            TOTAL IN =      133968.6719              TOTAL IN =         834.0941

          OUT:                                     OUT:
          ----                                     ----
             STORAGE =       3.6808E-02               STORAGE =       4.0292E-04
       CONSTANT HEAD =           0.0000         CONSTANT HEAD =           0.0000
               WELLS =       35000.0000                 WELLS =         500.0000
       RIVER LEAKAGE =       98978.9219         RIVER LEAKAGE =         334.1241

           TOTAL OUT =      133978.9531             TOTAL OUT =         834.1245

            IN - OUT =         -10.2812              IN - OUT =      -3.0396E-02

 PERCENT DISCREPANCY =          -0.01     PERCENT DISCREPANCY =          -0.00






         TIME SUMMARY AT END OF TIME STEP   70 IN STRESS PERIOD    3
                    SECONDS     MINUTES      HOURS       DAYS        YEARS
                    -----------------------------------------------------------
   TIME STEP LENGTH  86400.      1440.0      24.000      1.0000     2.73785E-03
 STRESS PERIOD TIME 6.04800E+06 1.00800E+05  1680.0      70.000     0.19165    
         TOTAL TIME 1.47744E+07 2.46240E+05  4104.0      171.00     0.46817    
1

 SOLVING FOR HEAD 

 OUTPUT CONTROL FOR STRESS PERIOD    3   TIME STEP   71
    SAVE HEAD FOR ALL LAYERS
    SAVE DRAWDOWN FOR ALL LAYERS
    SAVE BUDGET
    PRINT HEAD FOR ALL LAYERS
    PRINT BUDGET
 UBDSV1 SAVING "         STORAGE" ON UNIT  53 AT TIME STEP 71, STRESS PERIOD   3
 UBDSV2 SAVING "   CONSTANT HEAD" ON UNIT  53 AT TIME STEP 71, STRESS PERIOD   3
 UBDSV1 SAVING "FLOW RIGHT FACE " ON UNIT  53 AT TIME STEP 71, STRESS PERIOD   3
 UBDSV1 SAVING "FLOW FRONT FACE " ON UNIT  53 AT TIME STEP 71, STRESS PERIOD   3
 UBDSV1 SAVING "FLOW LOWER FACE " ON UNIT  53 AT TIME STEP 71, STRESS PERIOD   3
1
              HEAD IN LAYER   1 AT END OF TIME STEP  71 IN STRESS PERIOD    3
  ---------------------------------------------------------------------------

            1           2           3           4           5           6           7           8           9          10
 ........................................................................................................................
   1    9.996       8.411       6.875       5.442       4.174       3.109       2.212       1.425      0.7003      2.3263E-03
   2    9.995       8.364       6.771       5.277       3.970       2.941       2.101       1.363      0.6732      2.2364E-03
   3    9.995       8.276       6.570       4.924       3.488       2.583       1.889       1.252      0.6271      2.0834E-03
   4    9.995       8.175       6.307       4.359       2.465       2.015       1.617       1.130      0.5805      1.9291E-03
   5    9.995       8.122       6.125       3.723     -0.3954       1.376       1.433       1.072      0.5626      1.8696E-03
   6    9.995       8.192       6.340       4.402       2.514       2.062       1.658       1.160      0.5961      1.9808E-03
   7    9.995       8.313       6.638       5.016       3.591       2.684       1.975       1.315      0.6597      2.1916E-03
   8    9.996       8.424       6.885       5.430       4.142       3.108       2.242       1.464      0.7255      2.4101E-03
   9    9.996       8.503       7.048       5.677       4.438       3.363       2.422       1.573      0.7758      2.5773E-03
  10    9.996       8.542       7.127       5.792       4.571       3.481       2.511       1.629      0.8025      2.6657E-03
1
              HEAD IN LAYER   2 AT END OF TIME STEP  71 IN STRESS PERIOD    3
  ---------------------------------------------------------------------------

            1           2           3           4           5           6           7           8           9          10
 ........................................................................................................................
   1    9.996       8.411       6.875       5.442       4.174       3.109       2.212       1.425      0.7003      2.3263E-03
   2    9.995       8.364       6.771       5.277       3.970       2.941       2.101       1.363      0.6732      2.2364E-03
   3    9.995       8.276       6.570       4.924       3.488       2.583       1.889       1.252      0.6271      2.0834E-03
   4    9.995       8.175       6.308       4.359       2.475       2.015       1.617       1.130      0.5805      1.9291E-03
   5    9.995       8.122       6.125       3.732      0.1101       1.386       1.433       1.072      0.5626      1.8696E-03
   6    9.995       8.192       6.340       4.403       2.524       2.063       1.658       1.160      0.5961      1.9808E-03
   7    9.995       8.313       6.638       5.016       3.591       2.684       1.975       1.315      0.6597      2.1916E-03
   8    9.996       8.424       6.885       5.430       4.142       3.108       2.242       1.464      0.7255      2.4101E-03
   9    9.996       8.503       7.048       5.677       4.438       3.363       2.422       1.573      0.7758      2.5773E-03
  10    9.996       8.542       7.127       5.792       4.571       3.481       2.511       1.629      0.8025      2.6657E-03
1
              HEAD IN LAYER   3 AT END OF TIME STEP  71 IN STRESS PERIOD    3
  ---------------------------------------------------------------------------

            1           2           3           4           5           6           7           8           9          10
 ........................................................................................................................
   1    9.996       8.411       6.875       5.442       4.174       3.109       2.212       1.425      0.7003      2.3263E-03
   2    9.995       8.364       6.771       5.277       3.970       2.941       2.101       1.363      0.6732      2.2364E-03
   3    9.995       8.276       6.570       4.924       3.488       2.583       1.889       1.252      0.6271      2.0833E-03
   4    9.995       8.175       6.308       4.360       2.483       2.016       1.617       1.130      0.5805      1.9291E-03
   5    9.995       8.122       6.126       3.740      0.3529       1.394       1.433       1.072      0.5626      1.8696E-03
   6    9.995       8.192       6.340       4.403       2.532       2.063       1.658       1.160      0.5961      1.9808E-03
   7    9.995       8.313       6.638       5.016       3.592       2.684       1.975       1.315      0.6597      2.1916E-03
   8    9.996       8.424       6.885       5.430       4.142       3.108       2.242       1.464      0.7255      2.4101E-03
   9    9.996       8.503       7.048       5.677       4.438       3.363       2.422       1.573      0.7758      2.5773E-03
  10    9.996       8.542       7.127       5.792       4.571       3.481       2.511       1.629      0.8025      2.6657E-03

 HEAD WILL BE SAVED ON UNIT   51 AT END OF TIME STEP   71, STRESS PERIOD    3

 DRAWDOWN WILL BE SAVED ON UNIT   52 AT END OF TIME STEP   71, STRESS PERIOD    3
1
  VOLUMETRIC BUDGET FOR ENTIRE MODEL AT END OF TIME STEP   71, STRESS PERIOD   3
  ------------------------------------------------------------------------------

     CUMULATIVE VOLUMES      L**3       RATES FOR THIS TIME STEP      L**3/T
     ------------------                 ------------------------

           IN:                                      IN:
           ---                                      ---
             STORAGE =       30373.1113               STORAGE =           2.4517
       CONSTANT HEAD =           0.0000         CONSTANT HEAD =           0.0000
               WELLS =           0.0000                 WELLS =           0.0000
       RIVER LEAKAGE =      104429.5781         RIVER LEAKAGE =         831.5710

            TOTAL IN =      134802.6875              TOTAL IN =         834.0228

          OUT:                                     OUT:
          ----                                     ----
             STORAGE =       3.7210E-02               STORAGE =       4.0167E-04
       CONSTANT HEAD =           0.0000         CONSTANT HEAD =           0.0000
               WELLS =       35500.0000                 WELLS =         500.0000
       RIVER LEAKAGE =       99312.9766         RIVER LEAKAGE =         334.0529

           TOTAL OUT =      134813.0156             TOTAL OUT =         834.0533

            IN - OUT =         -10.3281              IN - OUT =      -3.0579E-02

 PERCENT DISCREPANCY =          -0.01     PERCENT DISCREPANCY =          -0.00






         TIME SUMMARY AT END OF TIME STEP   71 IN STRESS PERIOD    3
                    SECONDS     MINUTES      HOURS       DAYS        YEARS
                    -----------------------------------------------------------
   TIME STEP LENGTH  86400.      1440.0      24.000      1.0000     2.73785E-03
 STRESS PERIOD TIME 6.13440E+06 1.02240E+05  1704.0      71.000     0.19439    
         TOTAL TIME 1.48608E+07 2.47680E+05  4128.0      172.00     0.47091    
1

 SOLVING FOR HEAD 

 OUTPUT CONTROL FOR STRESS PERIOD    3   TIME STEP   72
    SAVE HEAD FOR ALL LAYERS
    SAVE DRAWDOWN FOR ALL LAYERS
    SAVE BUDGET
    PRINT HEAD FOR ALL LAYERS
    PRINT BUDGET
 UBDSV1 SAVING "         STORAGE" ON UNIT  53 AT TIME STEP 72, STRESS PERIOD   3
 UBDSV2 SAVING "   CONSTANT HEAD" ON UNIT  53 AT TIME STEP 72, STRESS PERIOD   3
 UBDSV1 SAVING "FLOW RIGHT FACE " ON UNIT  53 AT TIME STEP 72, STRESS PERIOD   3
 UBDSV1 SAVING "FLOW FRONT FACE " ON UNIT  53 AT TIME STEP 72, STRESS PERIOD   3
 UBDSV1 SAVING "FLOW LOWER FACE " ON UNIT  53 AT TIME STEP 72, STRESS PERIOD   3
1
              HEAD IN LAYER   1 AT END OF TIME STEP  72 IN STRESS PERIOD    3
  ---------------------------------------------------------------------------

            1           2           3           4           5           6           7           8           9          10
 ........................................................................................................................
   1    9.996       8.411       6.875       5.442       4.173       3.109       2.212       1.425      0.7002      2.3258E-03
   2    9.995       8.363       6.771       5.277       3.970       2.941       2.101       1.363      0.6731      2.2359E-03
   3    9.995       8.276       6.569       4.923       3.487       2.583       1.888       1.252      0.6269      2.0829E-03
   4    9.995       8.175       6.307       4.358       2.464       2.014       1.616       1.130      0.5804      1.9286E-03
   5    9.995       8.122       6.125       3.722     -0.3964       1.375       1.432       1.071      0.5624      1.8691E-03
   6    9.995       8.192       6.339       4.402       2.513       2.062       1.657       1.160      0.5960      1.9804E-03
   7    9.995       8.312       6.638       5.015       3.591       2.684       1.975       1.314      0.6595      2.1912E-03
   8    9.996       8.424       6.885       5.430       4.142       3.108       2.242       1.464      0.7254      2.4097E-03
   9    9.996       8.502       7.048       5.677       4.438       3.362       2.422       1.573      0.7757      2.5769E-03
  10    9.996       8.542       7.127       5.792       4.570       3.481       2.511       1.629      0.8024      2.6654E-03
1
              HEAD IN LAYER   2 AT END OF TIME STEP  72 IN STRESS PERIOD    3
  ---------------------------------------------------------------------------

            1           2           3           4           5           6           7           8           9          10
 ........................................................................................................................
   1    9.996       8.411       6.875       5.442       4.173       3.109       2.212       1.425      0.7002      2.3258E-03
   2    9.995       8.363       6.771       5.277       3.970       2.941       2.101       1.363      0.6731      2.2359E-03
   3    9.995       8.276       6.569       4.923       3.487       2.583       1.888       1.252      0.6269      2.0829E-03
   4    9.995       8.175       6.307       4.359       2.474       2.015       1.616       1.130      0.5804      1.9286E-03
   5    9.995       8.122       6.125       3.732      0.1091       1.385       1.433       1.071      0.5624      1.8691E-03
   6    9.995       8.192       6.339       4.402       2.523       2.062       1.657       1.160      0.5960      1.9804E-03
   7    9.995       8.312       6.638       5.015       3.591       2.684       1.975       1.314      0.6595      2.1912E-03
   8    9.996       8.424       6.885       5.430       4.142       3.108       2.242       1.464      0.7254      2.4097E-03
   9    9.996       8.502       7.048       5.677       4.438       3.362       2.422       1.573      0.7757      2.5769E-03
  10    9.996       8.542       7.127       5.792       4.570       3.481       2.511       1.629      0.8024      2.6654E-03
1
              HEAD IN LAYER   3 AT END OF TIME STEP  72 IN STRESS PERIOD    3
  ---------------------------------------------------------------------------

            1           2           3           4           5           6           7           8           9          10
 ........................................................................................................................
   1    9.996       8.411       6.875       5.442       4.173       3.109       2.212       1.425      0.7002      2.3258E-03
   2    9.995       8.363       6.771       5.277       3.970       2.941       2.101       1.363      0.6731      2.2359E-03
   3    9.995       8.276       6.569       4.923       3.488       2.583       1.888       1.252      0.6269      2.0829E-03
   4    9.995       8.175       6.307       4.359       2.482       2.015       1.616       1.130      0.5804      1.9286E-03
   5    9.995       8.122       6.125       3.740      0.3519       1.393       1.433       1.071      0.5624      1.8691E-03
   6    9.995       8.192       6.339       4.403       2.531       2.063       1.657       1.160      0.5960      1.9804E-03
   7    9.995       8.312       6.638       5.015       3.591       2.684       1.975       1.314      0.6595      2.1912E-03
   8    9.996       8.424       6.885       5.430       4.142       3.108       2.242       1.464      0.7254      2.4097E-03
   9    9.996       8.502       7.048       5.677       4.438       3.362       2.422       1.573      0.7757      2.5769E-03
  10    9.996       8.542       7.127       5.792       4.570       3.481       2.511       1.629      0.8024      2.6654E-03

 HEAD WILL BE SAVED ON UNIT   51 AT END OF TIME STEP   72, STRESS PERIOD    3

 DRAWDOWN WILL BE SAVED ON UNIT   52 AT END OF TIME STEP   72, STRESS PERIOD    3
1
  VOLUMETRIC BUDGET FOR ENTIRE MODEL AT END OF TIME STEP   72, STRESS PERIOD   3
  ------------------------------------------------------------------------------

     CUMULATIVE VOLUMES      L**3       RATES FOR THIS TIME STEP      L**3/T
     ------------------                 ------------------------

           IN:                                      IN:
           ---                                      ---
             STORAGE =       30375.4199               STORAGE =           2.3096
       CONSTANT HEAD =           0.0000         CONSTANT HEAD =           0.0000
               WELLS =           0.0000                 WELLS =           0.0000
       RIVER LEAKAGE =      105261.2266         RIVER LEAKAGE =         831.6461

            TOTAL IN =      135636.6406              TOTAL IN =         833.9556

          OUT:                                     OUT:
          ----                                     ----
             STORAGE =       3.7612E-02               STORAGE =       4.0168E-04
       CONSTANT HEAD =           0.0000         CONSTANT HEAD =           0.0000
               WELLS =       36000.0000                 WELLS =         500.0000
       RIVER LEAKAGE =       99646.9609         RIVER LEAKAGE =         333.9860

           TOTAL OUT =      135647.0000             TOTAL OUT =         833.9865

            IN - OUT =         -10.3594              IN - OUT =      -3.0823E-02

 PERCENT DISCREPANCY =          -0.01     PERCENT DISCREPANCY =          -0.00






         TIME SUMMARY AT END OF TIME STEP   72 IN STRESS PERIOD    3
                    SECONDS     MINUTES      HOURS       DAYS        YEARS
                    -----------------------------------------------------------
   TIME STEP LENGTH  86400.      1440.0      24.000      1.0000     2.73785E-03
 STRESS PERIOD TIME 6.22080E+06 1.03680E+05  1728.0      72.000     0.19713    
         TOTAL TIME 1.49472E+07 2.49120E+05  4152.0      173.00     0.47365    
1

 SOLVING FOR HEAD 

 OUTPUT CONTROL FOR STRESS PERIOD    3   TIME STEP   73
    SAVE HEAD FOR ALL LAYERS
    SAVE DRAWDOWN FOR ALL LAYERS
    SAVE BUDGET
    PRINT HEAD FOR ALL LAYERS
    PRINT BUDGET
 UBDSV1 SAVING "         STORAGE" ON UNIT  53 AT TIME STEP 73, STRESS PERIOD   3
 UBDSV2 SAVING "   CONSTANT HEAD" ON UNIT  53 AT TIME STEP 73, STRESS PERIOD   3
 UBDSV1 SAVING "FLOW RIGHT FACE " ON UNIT  53 AT TIME STEP 73, STRESS PERIOD   3
 UBDSV1 SAVING "FLOW FRONT FACE " ON UNIT  53 AT TIME STEP 73, STRESS PERIOD   3
 UBDSV1 SAVING "FLOW LOWER FACE " ON UNIT  53 AT TIME STEP 73, STRESS PERIOD   3
1
              HEAD IN LAYER   1 AT END OF TIME STEP  73 IN STRESS PERIOD    3
  ---------------------------------------------------------------------------

            1           2           3           4           5           6           7           8           9          10
 ........................................................................................................................
   1    9.996       8.411       6.875       5.441       4.173       3.108       2.211       1.425      0.7000      2.3254E-03
   2    9.995       8.363       6.771       5.276       3.969       2.940       2.101       1.363      0.6729      2.2355E-03
   3    9.995       8.276       6.569       4.923       3.487       2.582       1.888       1.252      0.6268      2.0824E-03
   4    9.995       8.175       6.307       4.358       2.464       2.014       1.616       1.130      0.5803      1.9281E-03
   5    9.995       8.122       6.124       3.722     -0.3974       1.375       1.432       1.071      0.5623      1.8686E-03
   6    9.995       8.192       6.339       4.401       2.512       2.061       1.657       1.160      0.5959      1.9799E-03
   7    9.995       8.312       6.638       5.015       3.590       2.683       1.974       1.314      0.6594      2.1907E-03
   8    9.996       8.424       6.885       5.429       4.141       3.107       2.242       1.463      0.7252      2.4093E-03
   9    9.996       8.502       7.048       5.677       4.437       3.362       2.422       1.572      0.7756      2.5766E-03
  10    9.996       8.542       7.127       5.791       4.570       3.481       2.510       1.628      0.8023      2.6650E-03
1
              HEAD IN LAYER   2 AT END OF TIME STEP  73 IN STRESS PERIOD    3
  ---------------------------------------------------------------------------

            1           2           3           4           5           6           7           8           9          10
 ........................................................................................................................
   1    9.996       8.411       6.875       5.441       4.173       3.108       2.211       1.425      0.7000      2.3254E-03
   2    9.995       8.363       6.771       5.276       3.969       2.940       2.101       1.363      0.6729      2.2355E-03
   3    9.995       8.276       6.569       4.923       3.487       2.582       1.888       1.252      0.6268      2.0824E-03
   4    9.995       8.175       6.307       4.358       2.474       2.014       1.616       1.130      0.5803      1.9281E-03
   5    9.995       8.122       6.125       3.731      0.1082       1.385       1.432       1.071      0.5623      1.8686E-03
   6    9.995       8.192       6.339       4.402       2.522       2.062       1.657       1.160      0.5959      1.9799E-03
   7    9.995       8.312       6.638       5.015       3.590       2.683       1.974       1.314      0.6594      2.1907E-03
   8    9.996       8.424       6.885       5.429       4.141       3.107       2.242       1.463      0.7252      2.4093E-03
   9    9.996       8.502       7.048       5.677       4.437       3.362       2.422       1.572      0.7756      2.5766E-03
  10    9.996       8.542       7.127       5.791       4.570       3.481       2.510       1.628      0.8023      2.6650E-03
1
              HEAD IN LAYER   3 AT END OF TIME STEP  73 IN STRESS PERIOD    3
  ---------------------------------------------------------------------------

            1           2           3           4           5           6           7           8           9          10
 ........................................................................................................................
   1    9.996       8.411       6.875       5.441       4.173       3.108       2.211       1.425      0.7000      2.3254E-03
   2    9.995       8.363       6.771       5.276       3.969       2.940       2.101       1.363      0.6729      2.2355E-03
   3    9.995       8.276       6.569       4.923       3.487       2.582       1.888       1.252      0.6268      2.0824E-03
   4    9.995       8.175       6.307       4.359       2.482       2.014       1.616       1.130      0.5803      1.9281E-03
   5    9.995       8.122       6.125       3.739      0.3510       1.393       1.432       1.071      0.5623      1.8686E-03
   6    9.995       8.192       6.339       4.402       2.530       2.062       1.657       1.160      0.5959      1.9799E-03
   7    9.995       8.312       6.638       5.015       3.591       2.683       1.974       1.314      0.6594      2.1907E-03
   8    9.996       8.424       6.885       5.429       4.141       3.107       2.242       1.463      0.7252      2.4093E-03
   9    9.996       8.502       7.048       5.677       4.437       3.362       2.422       1.572      0.7756      2.5766E-03
  10    9.996       8.542       7.127       5.791       4.570       3.481       2.510       1.628      0.8023      2.6650E-03

 HEAD WILL BE SAVED ON UNIT   51 AT END OF TIME STEP   73, STRESS PERIOD    3

 DRAWDOWN WILL BE SAVED ON UNIT   52 AT END OF TIME STEP   73, STRESS PERIOD    3
1
  VOLUMETRIC BUDGET FOR ENTIRE MODEL AT END OF TIME STEP   73, STRESS PERIOD   3
  ------------------------------------------------------------------------------

     CUMULATIVE VOLUMES      L**3       RATES FOR THIS TIME STEP      L**3/T
     ------------------                 ------------------------

           IN:                                      IN:
           ---                                      ---
             STORAGE =       30377.5957               STORAGE =           2.1757
       CONSTANT HEAD =           0.0000         CONSTANT HEAD =           0.0000
               WELLS =           0.0000                 WELLS =           0.0000
       RIVER LEAKAGE =      106092.9453         RIVER LEAKAGE =         831.7167

            TOTAL IN =      136470.5469              TOTAL IN =         833.8925

          OUT:                                     OUT:
          ----                                     ----
             STORAGE =       3.7929E-02               STORAGE =       3.1740E-04
       CONSTANT HEAD =           0.0000         CONSTANT HEAD =           0.0000
               WELLS =       36500.0000                 WELLS =         500.0000
       RIVER LEAKAGE =       99980.8828         RIVER LEAKAGE =         333.9229

           TOTAL OUT =      136480.9219             TOTAL OUT =         833.9232

            IN - OUT =         -10.3750              IN - OUT =      -3.0762E-02

 PERCENT DISCREPANCY =          -0.01     PERCENT DISCREPANCY =          -0.00






         TIME SUMMARY AT END OF TIME STEP   73 IN STRESS PERIOD    3
                    SECONDS     MINUTES      HOURS       DAYS        YEARS
                    -----------------------------------------------------------
   TIME STEP LENGTH  86400.      1440.0      24.000      1.0000     2.73785E-03
 STRESS PERIOD TIME 6.30720E+06 1.05120E+05  1752.0      73.000     0.19986    
         TOTAL TIME 1.50336E+07 2.50560E+05  4176.0      174.00     0.47639    
1

 SOLVING FOR HEAD 

 OUTPUT CONTROL FOR STRESS PERIOD    3   TIME STEP   74
    SAVE HEAD FOR ALL LAYERS
    SAVE DRAWDOWN FOR ALL LAYERS
    SAVE BUDGET
    PRINT HEAD FOR ALL LAYERS
    PRINT BUDGET
 UBDSV1 SAVING "         STORAGE" ON UNIT  53 AT TIME STEP 74, STRESS PERIOD   3
 UBDSV2 SAVING "   CONSTANT HEAD" ON UNIT  53 AT TIME STEP 74, STRESS PERIOD   3
 UBDSV1 SAVING "FLOW RIGHT FACE " ON UNIT  53 AT TIME STEP 74, STRESS PERIOD   3
 UBDSV1 SAVING "FLOW FRONT FACE " ON UNIT  53 AT TIME STEP 74, STRESS PERIOD   3
 UBDSV1 SAVING "FLOW LOWER FACE " ON UNIT  53 AT TIME STEP 74, STRESS PERIOD   3
1
              HEAD IN LAYER   1 AT END OF TIME STEP  74 IN STRESS PERIOD    3
  ---------------------------------------------------------------------------

            1           2           3           4           5           6           7           8           9          10
 ........................................................................................................................
   1    9.996       8.411       6.874       5.441       4.173       3.108       2.211       1.424      0.6999      2.3250E-03
   2    9.995       8.363       6.771       5.276       3.969       2.940       2.100       1.362      0.6728      2.2351E-03
   3    9.995       8.276       6.569       4.922       3.486       2.582       1.887       1.252      0.6267      2.0820E-03
   4    9.995       8.175       6.307       4.358       2.463       2.013       1.616       1.130      0.5801      1.9276E-03
   5    9.995       8.121       6.124       3.721     -0.3983       1.374       1.432       1.071      0.5622      1.8682E-03
   6    9.995       8.192       6.339       4.401       2.512       2.061       1.657       1.159      0.5957      1.9795E-03
   7    9.995       8.312       6.638       5.015       3.590       2.683       1.974       1.314      0.6593      2.1903E-03
   8    9.996       8.424       6.885       5.429       4.141       3.107       2.241       1.463      0.7251      2.4089E-03
   9    9.996       8.502       7.048       5.676       4.437       3.362       2.421       1.572      0.7755      2.5762E-03
  10    9.996       8.542       7.127       5.791       4.570       3.481       2.510       1.628      0.8022      2.6647E-03
1
              HEAD IN LAYER   2 AT END OF TIME STEP  74 IN STRESS PERIOD    3
  ---------------------------------------------------------------------------

            1           2           3           4           5           6           7           8           9          10
 ........................................................................................................................
   1    9.996       8.411       6.874       5.441       4.173       3.108       2.211       1.424      0.6999      2.3250E-03
   2    9.995       8.363       6.771       5.276       3.969       2.940       2.100       1.362      0.6728      2.2351E-03
   3    9.995       8.276       6.569       4.922       3.487       2.582       1.887       1.252      0.6267      2.0820E-03
   4    9.995       8.175       6.307       4.358       2.473       2.014       1.616       1.130      0.5801      1.9276E-03
   5    9.995       8.121       6.124       3.731      0.1074       1.384       1.432       1.071      0.5622      1.8682E-03
   6    9.995       8.192       6.339       4.401       2.522       2.061       1.657       1.159      0.5957      1.9795E-03
   7    9.995       8.312       6.638       5.015       3.590       2.683       1.974       1.314      0.6593      2.1903E-03
   8    9.996       8.424       6.885       5.429       4.141       3.107       2.241       1.463      0.7251      2.4089E-03
   9    9.996       8.502       7.048       5.676       4.437       3.362       2.421       1.572      0.7755      2.5762E-03
  10    9.996       8.542       7.127       5.791       4.570       3.481       2.510       1.628      0.8022      2.6647E-03
1
              HEAD IN LAYER   3 AT END OF TIME STEP  74 IN STRESS PERIOD    3
  ---------------------------------------------------------------------------

            1           2           3           4           5           6           7           8           9          10
 ........................................................................................................................
   1    9.996       8.411       6.874       5.441       4.173       3.108       2.211       1.424      0.6999      2.3250E-03
   2    9.995       8.363       6.771       5.276       3.969       2.940       2.100       1.362      0.6728      2.2351E-03
   3    9.995       8.276       6.569       4.922       3.487       2.582       1.887       1.252      0.6267      2.0820E-03
   4    9.995       8.175       6.307       4.358       2.481       2.014       1.616       1.130      0.5801      1.9276E-03
   5    9.995       8.121       6.125       3.739      0.3502       1.392       1.432       1.071      0.5622      1.8682E-03
   6    9.995       8.192       6.339       4.402       2.530       2.062       1.657       1.159      0.5957      1.9795E-03
   7    9.995       8.312       6.638       5.015       3.590       2.683       1.974       1.314      0.6593      2.1903E-03
   8    9.996       8.424       6.885       5.429       4.141       3.107       2.241       1.463      0.7251      2.4089E-03
   9    9.996       8.502       7.048       5.676       4.437       3.362       2.421       1.572      0.7755      2.5762E-03
  10    9.996       8.542       7.127       5.791       4.570       3.481       2.510       1.628      0.8022      2.6647E-03

 HEAD WILL BE SAVED ON UNIT   51 AT END OF TIME STEP   74, STRESS PERIOD    3

 DRAWDOWN WILL BE SAVED ON UNIT   52 AT END OF TIME STEP   74, STRESS PERIOD    3
1
  VOLUMETRIC BUDGET FOR ENTIRE MODEL AT END OF TIME STEP   74, STRESS PERIOD   3
  ------------------------------------------------------------------------------

     CUMULATIVE VOLUMES      L**3       RATES FOR THIS TIME STEP      L**3/T
     ------------------                 ------------------------

           IN:                                      IN:
           ---                                      ---
             STORAGE =       30379.6445               STORAGE =           2.0496
       CONSTANT HEAD =           0.0000         CONSTANT HEAD =           0.0000
               WELLS =           0.0000                 WELLS =           0.0000
       RIVER LEAKAGE =      106924.7266         RIVER LEAKAGE =         831.7833

            TOTAL IN =      137304.3750              TOTAL IN =         833.8329

          OUT:                                     OUT:
          ----                                     ----
             STORAGE =       3.8340E-02               STORAGE =       4.1084E-04
       CONSTANT HEAD =           0.0000         CONSTANT HEAD =           0.0000
               WELLS =       37000.0000                 WELLS =         500.0000
       RIVER LEAKAGE =      100314.7500         RIVER LEAKAGE =         333.8635

           TOTAL OUT =      137314.7812             TOTAL OUT =         833.8639

            IN - OUT =         -10.4062              IN - OUT =      -3.1006E-02

 PERCENT DISCREPANCY =          -0.01     PERCENT DISCREPANCY =          -0.00






         TIME SUMMARY AT END OF TIME STEP   74 IN STRESS PERIOD    3
                    SECONDS     MINUTES      HOURS       DAYS        YEARS
                    -----------------------------------------------------------
   TIME STEP LENGTH  86400.      1440.0      24.000      1.0000     2.73785E-03
 STRESS PERIOD TIME 6.39360E+06 1.06560E+05  1776.0      74.000     0.20260    
         TOTAL TIME 1.51200E+07 2.52000E+05  4200.0      175.00     0.47912    
1

 SOLVING FOR HEAD 

 OUTPUT CONTROL FOR STRESS PERIOD    3   TIME STEP   75
    SAVE HEAD FOR ALL LAYERS
    SAVE DRAWDOWN FOR ALL LAYERS
    SAVE BUDGET
    PRINT HEAD FOR ALL LAYERS
    PRINT BUDGET
 UBDSV1 SAVING "         STORAGE" ON UNIT  53 AT TIME STEP 75, STRESS PERIOD   3
 UBDSV2 SAVING "   CONSTANT HEAD" ON UNIT  53 AT TIME STEP 75, STRESS PERIOD   3
 UBDSV1 SAVING "FLOW RIGHT FACE " ON UNIT  53 AT TIME STEP 75, STRESS PERIOD   3
 UBDSV1 SAVING "FLOW FRONT FACE " ON UNIT  53 AT TIME STEP 75, STRESS PERIOD   3
 UBDSV1 SAVING "FLOW LOWER FACE " ON UNIT  53 AT TIME STEP 75, STRESS PERIOD   3
1
              HEAD IN LAYER   1 AT END OF TIME STEP  75 IN STRESS PERIOD    3
  ---------------------------------------------------------------------------

            1           2           3           4           5           6           7           8           9          10
 ........................................................................................................................
   1    9.996       8.411       6.874       5.441       4.172       3.108       2.211       1.424      0.6998      2.3247E-03
   2    9.995       8.363       6.770       5.275       3.968       2.939       2.100       1.362      0.6727      2.2347E-03
   3    9.995       8.275       6.569       4.922       3.486       2.582       1.887       1.251      0.6266      2.0816E-03
   4    9.995       8.174       6.306       4.357       2.463       2.013       1.615       1.129      0.5800      1.9272E-03
   5    9.995       8.121       6.124       3.721     -0.3991       1.373       1.431       1.071      0.5620      1.8678E-03
   6    9.995       8.192       6.339       4.400       2.511       2.060       1.656       1.159      0.5956      1.9791E-03
   7    9.995       8.312       6.637       5.014       3.589       2.683       1.974       1.314      0.6592      2.1900E-03
   8    9.996       8.424       6.884       5.429       4.141       3.106       2.241       1.463      0.7250      2.4086E-03
   9    9.996       8.502       7.047       5.676       4.437       3.361       2.421       1.572      0.7754      2.5759E-03
  10    9.996       8.542       7.127       5.791       4.569       3.480       2.510       1.628      0.8021      2.6644E-03
1
              HEAD IN LAYER   2 AT END OF TIME STEP  75 IN STRESS PERIOD    3
  ---------------------------------------------------------------------------

            1           2           3           4           5           6           7           8           9          10
 ........................................................................................................................
   1    9.996       8.411       6.874       5.441       4.172       3.108       2.211       1.424      0.6998      2.3247E-03
   2    9.995       8.363       6.770       5.275       3.968       2.939       2.100       1.362      0.6727      2.2347E-03
   3    9.995       8.275       6.569       4.922       3.486       2.582       1.887       1.251      0.6266      2.0816E-03
   4    9.995       8.174       6.306       4.358       2.473       2.013       1.615       1.129      0.5800      1.9272E-03
   5    9.995       8.121       6.124       3.730      0.1065       1.384       1.431       1.071      0.5620      1.8678E-03
   6    9.995       8.192       6.339       4.401       2.521       2.061       1.656       1.159      0.5956      1.9791E-03
   7    9.995       8.312       6.637       5.014       3.590       2.683       1.974       1.314      0.6592      2.1900E-03
   8    9.996       8.424       6.884       5.429       4.141       3.106       2.241       1.463      0.7250      2.4086E-03
   9    9.996       8.502       7.047       5.676       4.437       3.361       2.421       1.572      0.7754      2.5759E-03
  10    9.996       8.542       7.127       5.791       4.569       3.480       2.510       1.628      0.8021      2.6644E-03
1
              HEAD IN LAYER   3 AT END OF TIME STEP  75 IN STRESS PERIOD    3
  ---------------------------------------------------------------------------

            1           2           3           4           5           6           7           8           9          10
 ........................................................................................................................
   1    9.996       8.411       6.874       5.441       4.172       3.108       2.211       1.424      0.6998      2.3246E-03
   2    9.995       8.363       6.770       5.275       3.968       2.939       2.100       1.362      0.6727      2.2347E-03
   3    9.995       8.275       6.569       4.922       3.486       2.582       1.887       1.251      0.6266      2.0816E-03
   4    9.995       8.174       6.306       4.358       2.481       2.013       1.615       1.129      0.5800      1.9272E-03
   5    9.995       8.121       6.124       3.738      0.3494       1.392       1.432       1.071      0.5620      1.8678E-03
   6    9.995       8.192       6.339       4.401       2.529       2.061       1.656       1.159      0.5956      1.9791E-03
   7    9.995       8.312       6.637       5.014       3.590       2.683       1.974       1.314      0.6592      2.1900E-03
   8    9.996       8.424       6.884       5.429       4.141       3.106       2.241       1.463      0.7250      2.4085E-03
   9    9.996       8.502       7.047       5.676       4.437       3.361       2.421       1.572      0.7754      2.5759E-03
  10    9.996       8.542       7.127       5.791       4.569       3.480       2.510       1.628      0.8021      2.6644E-03

 HEAD WILL BE SAVED ON UNIT   51 AT END OF TIME STEP   75, STRESS PERIOD    3

 DRAWDOWN WILL BE SAVED ON UNIT   52 AT END OF TIME STEP   75, STRESS PERIOD    3
1
  VOLUMETRIC BUDGET FOR ENTIRE MODEL AT END OF TIME STEP   75, STRESS PERIOD   3
  ------------------------------------------------------------------------------

     CUMULATIVE VOLUMES      L**3       RATES FOR THIS TIME STEP      L**3/T
     ------------------                 ------------------------

           IN:                                      IN:
           ---                                      ---
             STORAGE =       30381.5762               STORAGE =           1.9307
       CONSTANT HEAD =           0.0000         CONSTANT HEAD =           0.0000
               WELLS =           0.0000                 WELLS =           0.0000
       RIVER LEAKAGE =      107756.5703         RIVER LEAKAGE =         831.8459

            TOTAL IN =      138138.1406              TOTAL IN =         833.7766

          OUT:                                     OUT:
          ----                                     ----
             STORAGE =       3.8828E-02               STORAGE =       4.8840E-04
       CONSTANT HEAD =           0.0000         CONSTANT HEAD =           0.0000
               WELLS =       37500.0000                 WELLS =         500.0000
       RIVER LEAKAGE =      100648.5547         RIVER LEAKAGE =         333.8075

           TOTAL OUT =      138148.5938             TOTAL OUT =         833.8080

            IN - OUT =         -10.4531              IN - OUT =      -3.1372E-02

 PERCENT DISCREPANCY =          -0.01     PERCENT DISCREPANCY =          -0.00






         TIME SUMMARY AT END OF TIME STEP   75 IN STRESS PERIOD    3
                    SECONDS     MINUTES      HOURS       DAYS        YEARS
                    -----------------------------------------------------------
   TIME STEP LENGTH  86400.      1440.0      24.000      1.0000     2.73785E-03
 STRESS PERIOD TIME 6.48000E+06 1.08000E+05  1800.0      75.000     0.20534    
         TOTAL TIME 1.52064E+07 2.53440E+05  4224.0      176.00     0.48186    
1

 SOLVING FOR HEAD 

 OUTPUT CONTROL FOR STRESS PERIOD    3   TIME STEP   76
    SAVE HEAD FOR ALL LAYERS
    SAVE DRAWDOWN FOR ALL LAYERS
    SAVE BUDGET
    PRINT HEAD FOR ALL LAYERS
    PRINT BUDGET
 UBDSV1 SAVING "         STORAGE" ON UNIT  53 AT TIME STEP 76, STRESS PERIOD   3
 UBDSV2 SAVING "   CONSTANT HEAD" ON UNIT  53 AT TIME STEP 76, STRESS PERIOD   3
 UBDSV1 SAVING "FLOW RIGHT FACE " ON UNIT  53 AT TIME STEP 76, STRESS PERIOD   3
 UBDSV1 SAVING "FLOW FRONT FACE " ON UNIT  53 AT TIME STEP 76, STRESS PERIOD   3
 UBDSV1 SAVING "FLOW LOWER FACE " ON UNIT  53 AT TIME STEP 76, STRESS PERIOD   3
1
              HEAD IN LAYER   1 AT END OF TIME STEP  76 IN STRESS PERIOD    3
  ---------------------------------------------------------------------------

            1           2           3           4           5           6           7           8           9          10
 ........................................................................................................................
   1    9.996       8.411       6.874       5.440       4.172       3.107       2.210       1.424      0.6997      2.3243E-03
   2    9.995       8.363       6.770       5.275       3.968       2.939       2.100       1.362      0.6726      2.2344E-03
   3    9.995       8.275       6.568       4.922       3.485       2.581       1.887       1.251      0.6265      2.0812E-03
   4    9.995       8.174       6.306       4.357       2.462       2.012       1.615       1.129      0.5799      1.9268E-03
   5    9.995       8.121       6.123       3.720     -0.3999       1.373       1.431       1.070      0.5619      1.8674E-03
   6    9.995       8.192       6.338       4.400       2.511       2.060       1.656       1.159      0.5955      1.9787E-03
   7    9.995       8.312       6.637       5.014       3.589       2.682       1.973       1.314      0.6591      2.1896E-03
   8    9.996       8.423       6.884       5.429       4.140       3.106       2.241       1.463      0.7249      2.4082E-03
   9    9.996       8.502       7.047       5.676       4.437       3.361       2.421       1.572      0.7753      2.5756E-03
  10    9.996       8.541       7.126       5.791       4.569       3.480       2.510       1.628      0.8020      2.6641E-03
1
              HEAD IN LAYER   2 AT END OF TIME STEP  76 IN STRESS PERIOD    3
  ---------------------------------------------------------------------------

            1           2           3           4           5           6           7           8           9          10
 ........................................................................................................................
   1    9.996       8.411       6.874       5.440       4.172       3.107       2.210       1.424      0.6997      2.3243E-03
   2    9.995       8.363       6.770       5.275       3.968       2.939       2.100       1.362      0.6726      2.2344E-03
   3    9.995       8.275       6.568       4.922       3.486       2.581       1.887       1.251      0.6265      2.0812E-03
   4    9.995       8.174       6.306       4.357       2.472       2.013       1.615       1.129      0.5799      1.9268E-03
   5    9.995       8.121       6.124       3.730      0.1058       1.383       1.431       1.070      0.5619      1.8674E-03
   6    9.995       8.192       6.338       4.400       2.521       2.060       1.656       1.159      0.5955      1.9787E-03
   7    9.995       8.312       6.637       5.014       3.589       2.682       1.973       1.314      0.6591      2.1896E-03
   8    9.996       8.423       6.884       5.429       4.140       3.106       2.241       1.463      0.7249      2.4082E-03
   9    9.996       8.502       7.047       5.676       4.437       3.361       2.421       1.572      0.7753      2.5756E-03
  10    9.996       8.541       7.126       5.791       4.569       3.480       2.510       1.628      0.8020      2.6641E-03
1
              HEAD IN LAYER   3 AT END OF TIME STEP  76 IN STRESS PERIOD    3
  ---------------------------------------------------------------------------

            1           2           3           4           5           6           7           8           9          10
 ........................................................................................................................
   1    9.996       8.411       6.874       5.440       4.172       3.107       2.210       1.424      0.6997      2.3243E-03
   2    9.995       8.363       6.770       5.275       3.968       2.939       2.100       1.362      0.6726      2.2344E-03
   3    9.995       8.275       6.568       4.922       3.486       2.581       1.887       1.251      0.6265      2.0812E-03
   4    9.995       8.174       6.306       4.358       2.480       2.013       1.615       1.129      0.5799      1.9268E-03
   5    9.995       8.121       6.124       3.738      0.3487       1.391       1.431       1.070      0.5619      1.8674E-03
   6    9.995       8.192       6.338       4.401       2.529       2.061       1.656       1.159      0.5955      1.9787E-03
   7    9.995       8.312       6.637       5.014       3.589       2.682       1.973       1.314      0.6591      2.1896E-03
   8    9.996       8.423       6.884       5.429       4.140       3.106       2.241       1.463      0.7249      2.4082E-03
   9    9.996       8.502       7.047       5.676       4.437       3.361       2.421       1.572      0.7753      2.5756E-03
  10    9.996       8.541       7.126       5.791       4.569       3.480       2.510       1.628      0.8020      2.6641E-03

 HEAD WILL BE SAVED ON UNIT   51 AT END OF TIME STEP   76, STRESS PERIOD    3

 DRAWDOWN WILL BE SAVED ON UNIT   52 AT END OF TIME STEP   76, STRESS PERIOD    3
1
  VOLUMETRIC BUDGET FOR ENTIRE MODEL AT END OF TIME STEP   76, STRESS PERIOD   3
  ------------------------------------------------------------------------------

     CUMULATIVE VOLUMES      L**3       RATES FOR THIS TIME STEP      L**3/T
     ------------------                 ------------------------

           IN:                                      IN:
           ---                                      ---
             STORAGE =       30383.3945               STORAGE =           1.8187
       CONSTANT HEAD =           0.0000         CONSTANT HEAD =           0.0000
               WELLS =           0.0000                 WELLS =           0.0000
       RIVER LEAKAGE =      108588.4766         RIVER LEAKAGE =         831.9050

            TOTAL IN =      138971.8750              TOTAL IN =         833.7236

          OUT:                                     OUT:
          ----                                     ----
             STORAGE =       3.9331E-02               STORAGE =       5.0263E-04
       CONSTANT HEAD =           0.0000         CONSTANT HEAD =           0.0000
               WELLS =       38000.0000                 WELLS =         500.0000
       RIVER LEAKAGE =      100982.3125         RIVER LEAKAGE =         333.7548

           TOTAL OUT =      138982.3438             TOTAL OUT =         833.7552

            IN - OUT =         -10.4688              IN - OUT =      -3.1616E-02

 PERCENT DISCREPANCY =          -0.01     PERCENT DISCREPANCY =          -0.00






         TIME SUMMARY AT END OF TIME STEP   76 IN STRESS PERIOD    3
                    SECONDS     MINUTES      HOURS       DAYS        YEARS
                    -----------------------------------------------------------
   TIME STEP LENGTH  86400.      1440.0      24.000      1.0000     2.73785E-03
 STRESS PERIOD TIME 6.56640E+06 1.09440E+05  1824.0      76.000     0.20808    
         TOTAL TIME 1.52928E+07 2.54880E+05  4248.0      177.00     0.48460    
1

 SOLVING FOR HEAD 

 OUTPUT CONTROL FOR STRESS PERIOD    3   TIME STEP   77
    SAVE HEAD FOR ALL LAYERS
    SAVE DRAWDOWN FOR ALL LAYERS
    SAVE BUDGET
    PRINT HEAD FOR ALL LAYERS
    PRINT BUDGET
 UBDSV1 SAVING "         STORAGE" ON UNIT  53 AT TIME STEP 77, STRESS PERIOD   3
 UBDSV2 SAVING "   CONSTANT HEAD" ON UNIT  53 AT TIME STEP 77, STRESS PERIOD   3
 UBDSV1 SAVING "FLOW RIGHT FACE " ON UNIT  53 AT TIME STEP 77, STRESS PERIOD   3
 UBDSV1 SAVING "FLOW FRONT FACE " ON UNIT  53 AT TIME STEP 77, STRESS PERIOD   3
 UBDSV1 SAVING "FLOW LOWER FACE " ON UNIT  53 AT TIME STEP 77, STRESS PERIOD   3
1
              HEAD IN LAYER   1 AT END OF TIME STEP  77 IN STRESS PERIOD    3
  ---------------------------------------------------------------------------

            1           2           3           4           5           6           7           8           9          10
 ........................................................................................................................
   1    9.996       8.411       6.874       5.440       4.172       3.107       2.210       1.424      0.6996      2.3240E-03
   2    9.995       8.363       6.770       5.275       3.968       2.939       2.099       1.362      0.6725      2.2340E-03
   3    9.995       8.275       6.568       4.921       3.485       2.581       1.887       1.251      0.6263      2.0809E-03
   4    9.995       8.174       6.306       4.356       2.462       2.012       1.615       1.129      0.5798      1.9265E-03
   5    9.995       8.121       6.123       3.720     -0.4007       1.372       1.430       1.070      0.5618      1.8670E-03
   6    9.995       8.191       6.338       4.400       2.510       2.059       1.656       1.159      0.5954      1.9783E-03
   7    9.995       8.312       6.637       5.014       3.589       2.682       1.973       1.313      0.6590      2.1893E-03
   8    9.996       8.423       6.884       5.428       4.140       3.106       2.241       1.463      0.7248      2.4079E-03
   9    9.996       8.502       7.047       5.676       4.436       3.361       2.421       1.572      0.7752      2.5753E-03
  10    9.996       8.541       7.126       5.790       4.569       3.480       2.509       1.628      0.8019      2.6638E-03
1
              HEAD IN LAYER   2 AT END OF TIME STEP  77 IN STRESS PERIOD    3
  ---------------------------------------------------------------------------

            1           2           3           4           5           6           7           8           9          10
 ........................................................................................................................
   1    9.996       8.411       6.874       5.440       4.172       3.107       2.210       1.424      0.6996      2.3240E-03
   2    9.995       8.363       6.770       5.275       3.968       2.939       2.099       1.362      0.6725      2.2340E-03
   3    9.995       8.275       6.568       4.921       3.485       2.581       1.887       1.251      0.6263      2.0809E-03
   4    9.995       8.174       6.306       4.357       2.472       2.012       1.615       1.129      0.5798      1.9265E-03
   5    9.995       8.121       6.123       3.729      0.1051       1.383       1.431       1.070      0.5618      1.8670E-03
   6    9.995       8.191       6.338       4.400       2.520       2.060       1.656       1.159      0.5954      1.9783E-03
   7    9.995       8.312       6.637       5.014       3.589       2.682       1.973       1.313      0.6590      2.1893E-03
   8    9.996       8.423       6.884       5.428       4.140       3.106       2.241       1.463      0.7248      2.4079E-03
   9    9.996       8.502       7.047       5.676       4.436       3.361       2.421       1.572      0.7752      2.5753E-03
  10    9.996       8.541       7.126       5.790       4.569       3.480       2.509       1.628      0.8019      2.6638E-03
1
              HEAD IN LAYER   3 AT END OF TIME STEP  77 IN STRESS PERIOD    3
  ---------------------------------------------------------------------------

            1           2           3           4           5           6           7           8           9          10
 ........................................................................................................................
   1    9.996       8.411       6.874       5.440       4.172       3.107       2.210       1.424      0.6996      2.3240E-03
   2    9.995       8.363       6.770       5.275       3.968       2.939       2.099       1.362      0.6725      2.2340E-03
   3    9.995       8.275       6.568       4.921       3.486       2.581       1.887       1.251      0.6263      2.0809E-03
   4    9.995       8.174       6.306       4.357       2.480       2.013       1.615       1.129      0.5798      1.9265E-03
   5    9.995       8.121       6.124       3.737      0.3480       1.391       1.431       1.070      0.5618      1.8670E-03
   6    9.995       8.191       6.338       4.401       2.528       2.060       1.656       1.159      0.5954      1.9783E-03
   7    9.995       8.312       6.637       5.014       3.589       2.682       1.973       1.313      0.6590      2.1893E-03
   8    9.996       8.423       6.884       5.428       4.140       3.106       2.241       1.463      0.7248      2.4079E-03
   9    9.996       8.502       7.047       5.676       4.436       3.361       2.421       1.572      0.7752      2.5753E-03
  10    9.996       8.541       7.126       5.790       4.569       3.480       2.509       1.628      0.8019      2.6638E-03

 HEAD WILL BE SAVED ON UNIT   51 AT END OF TIME STEP   77, STRESS PERIOD    3

 DRAWDOWN WILL BE SAVED ON UNIT   52 AT END OF TIME STEP   77, STRESS PERIOD    3
1
  VOLUMETRIC BUDGET FOR ENTIRE MODEL AT END OF TIME STEP   77, STRESS PERIOD   3
  ------------------------------------------------------------------------------

     CUMULATIVE VOLUMES      L**3       RATES FOR THIS TIME STEP      L**3/T
     ------------------                 ------------------------

           IN:                                      IN:
           ---                                      ---
             STORAGE =       30385.1074               STORAGE =           1.7134
       CONSTANT HEAD =           0.0000         CONSTANT HEAD =           0.0000
               WELLS =           0.0000                 WELLS =           0.0000
       RIVER LEAKAGE =      109420.4375         RIVER LEAKAGE =         831.9604

            TOTAL IN =      139805.5469              TOTAL IN =         833.6739

          OUT:                                     OUT:
          ----                                     ----
             STORAGE =       3.9716E-02               STORAGE =       3.8537E-04
       CONSTANT HEAD =           0.0000         CONSTANT HEAD =           0.0000
               WELLS =       38500.0000                 WELLS =         500.0000
       RIVER LEAKAGE =      101316.0156         RIVER LEAKAGE =         333.7051

           TOTAL OUT =      139816.0625             TOTAL OUT =         833.7056

            IN - OUT =         -10.5156              IN - OUT =      -3.1677E-02

 PERCENT DISCREPANCY =          -0.01     PERCENT DISCREPANCY =          -0.00






         TIME SUMMARY AT END OF TIME STEP   77 IN STRESS PERIOD    3
                    SECONDS     MINUTES      HOURS       DAYS        YEARS
                    -----------------------------------------------------------
   TIME STEP LENGTH  86400.      1440.0      24.000      1.0000     2.73785E-03
 STRESS PERIOD TIME 6.65280E+06 1.10880E+05  1848.0      77.000     0.21081    
         TOTAL TIME 1.53792E+07 2.56320E+05  4272.0      178.00     0.48734    
1

 SOLVING FOR HEAD 

 OUTPUT CONTROL FOR STRESS PERIOD    3   TIME STEP   78
    SAVE HEAD FOR ALL LAYERS
    SAVE DRAWDOWN FOR ALL LAYERS
    SAVE BUDGET
    PRINT HEAD FOR ALL LAYERS
    PRINT BUDGET
 UBDSV1 SAVING "         STORAGE" ON UNIT  53 AT TIME STEP 78, STRESS PERIOD   3
 UBDSV2 SAVING "   CONSTANT HEAD" ON UNIT  53 AT TIME STEP 78, STRESS PERIOD   3
 UBDSV1 SAVING "FLOW RIGHT FACE " ON UNIT  53 AT TIME STEP 78, STRESS PERIOD   3
 UBDSV1 SAVING "FLOW FRONT FACE " ON UNIT  53 AT TIME STEP 78, STRESS PERIOD   3
 UBDSV1 SAVING "FLOW LOWER FACE " ON UNIT  53 AT TIME STEP 78, STRESS PERIOD   3
1
              HEAD IN LAYER   1 AT END OF TIME STEP  78 IN STRESS PERIOD    3
  ---------------------------------------------------------------------------

            1           2           3           4           5           6           7           8           9          10
 ........................................................................................................................
   1    9.996       8.411       6.874       5.440       4.171       3.107       2.210       1.424      0.6995      2.3237E-03
   2    9.995       8.363       6.770       5.275       3.967       2.939       2.099       1.362      0.6724      2.2337E-03
   3    9.995       8.275       6.568       4.921       3.485       2.580       1.886       1.251      0.6262      2.0806E-03
   4    9.995       8.174       6.305       4.356       2.461       2.011       1.614       1.129      0.5797      1.9261E-03
   5    9.995       8.121       6.123       3.719     -0.4014       1.372       1.430       1.070      0.5617      1.8667E-03
   6    9.995       8.191       6.338       4.399       2.510       2.059       1.655       1.158      0.5953      1.9780E-03
   7    9.995       8.312       6.637       5.013       3.588       2.682       1.973       1.313      0.6589      2.1890E-03
   8    9.996       8.423       6.884       5.428       4.140       3.106       2.240       1.462      0.7248      2.4076E-03
   9    9.996       8.502       7.047       5.675       4.436       3.360       2.420       1.571      0.7752      2.5750E-03
  10    9.996       8.541       7.126       5.790       4.569       3.480       2.509       1.628      0.8018      2.6636E-03
1
              HEAD IN LAYER   2 AT END OF TIME STEP  78 IN STRESS PERIOD    3
  ---------------------------------------------------------------------------

            1           2           3           4           5           6           7           8           9          10
 ........................................................................................................................
   1    9.996       8.411       6.874       5.440       4.171       3.107       2.210       1.424      0.6995      2.3237E-03
   2    9.995       8.363       6.770       5.275       3.967       2.939       2.099       1.362      0.6724      2.2337E-03
   3    9.995       8.275       6.568       4.921       3.485       2.580       1.886       1.251      0.6262      2.0806E-03
   4    9.995       8.174       6.305       4.356       2.471       2.012       1.614       1.129      0.5797      1.9261E-03
   5    9.995       8.121       6.123       3.729      0.1044       1.382       1.430       1.070      0.5617      1.8667E-03
   6    9.995       8.191       6.338       4.400       2.520       2.060       1.655       1.158      0.5953      1.9780E-03
   7    9.995       8.312       6.637       5.013       3.589       2.682       1.973       1.313      0.6589      2.1890E-03
   8    9.996       8.423       6.884       5.428       4.140       3.106       2.240       1.462      0.7248      2.4076E-03
   9    9.996       8.502       7.047       5.675       4.436       3.360       2.420       1.571      0.7752      2.5750E-03
  10    9.996       8.541       7.126       5.790       4.569       3.480       2.509       1.628      0.8018      2.6636E-03
1
              HEAD IN LAYER   3 AT END OF TIME STEP  78 IN STRESS PERIOD    3
  ---------------------------------------------------------------------------

            1           2           3           4           5           6           7           8           9          10
 ........................................................................................................................
   1    9.996       8.411       6.874       5.440       4.171       3.107       2.210       1.424      0.6995      2.3237E-03
   2    9.995       8.363       6.770       5.275       3.967       2.939       2.099       1.362      0.6724      2.2337E-03
   3    9.995       8.275       6.568       4.921       3.485       2.580       1.886       1.251      0.6262      2.0805E-03
   4    9.995       8.174       6.305       4.357       2.479       2.012       1.614       1.129      0.5797      1.9261E-03
   5    9.995       8.121       6.123       3.737      0.3473       1.390       1.431       1.070      0.5617      1.8666E-03
   6    9.995       8.191       6.338       4.400       2.528       2.060       1.655       1.158      0.5953      1.9780E-03
   7    9.995       8.312       6.637       5.013       3.589       2.682       1.973       1.313      0.6589      2.1890E-03
   8    9.996       8.423       6.884       5.428       4.140       3.106       2.240       1.462      0.7248      2.4076E-03
   9    9.996       8.502       7.047       5.675       4.436       3.360       2.420       1.571      0.7752      2.5750E-03
  10    9.996       8.541       7.126       5.790       4.569       3.480       2.509       1.628      0.8018      2.6636E-03

 HEAD WILL BE SAVED ON UNIT   51 AT END OF TIME STEP   78, STRESS PERIOD    3

 DRAWDOWN WILL BE SAVED ON UNIT   52 AT END OF TIME STEP   78, STRESS PERIOD    3
1
  VOLUMETRIC BUDGET FOR ENTIRE MODEL AT END OF TIME STEP   78, STRESS PERIOD   3
  ------------------------------------------------------------------------------

     CUMULATIVE VOLUMES      L**3       RATES FOR THIS TIME STEP      L**3/T
     ------------------                 ------------------------

           IN:                                      IN:
           ---                                      ---
             STORAGE =       30386.7207               STORAGE =           1.6141
       CONSTANT HEAD =           0.0000         CONSTANT HEAD =           0.0000
               WELLS =           0.0000                 WELLS =           0.0000
       RIVER LEAKAGE =      110252.4531         RIVER LEAKAGE =         832.0128

            TOTAL IN =      140639.1719              TOTAL IN =         833.6270

          OUT:                                     OUT:
          ----                                     ----
             STORAGE =       4.0140E-02               STORAGE =       4.2315E-04
       CONSTANT HEAD =           0.0000         CONSTANT HEAD =           0.0000
               WELLS =       39000.0000                 WELLS =         500.0000
       RIVER LEAKAGE =      101649.6719         RIVER LEAKAGE =         333.6583

           TOTAL OUT =      140649.7188             TOTAL OUT =         833.6588

            IN - OUT =         -10.5469              IN - OUT =      -3.1799E-02

 PERCENT DISCREPANCY =          -0.01     PERCENT DISCREPANCY =          -0.00






         TIME SUMMARY AT END OF TIME STEP   78 IN STRESS PERIOD    3
                    SECONDS     MINUTES      HOURS       DAYS        YEARS
                    -----------------------------------------------------------
   TIME STEP LENGTH  86400.      1440.0      24.000      1.0000     2.73785E-03
 STRESS PERIOD TIME 6.73920E+06 1.12320E+05  1872.0      78.000     0.21355    
         TOTAL TIME 1.54656E+07 2.57760E+05  4296.0      179.00     0.49008    
1

 SOLVING FOR HEAD 

 OUTPUT CONTROL FOR STRESS PERIOD    3   TIME STEP   79
    SAVE HEAD FOR ALL LAYERS
    SAVE DRAWDOWN FOR ALL LAYERS
    SAVE BUDGET
    PRINT HEAD FOR ALL LAYERS
    PRINT BUDGET
 UBDSV1 SAVING "         STORAGE" ON UNIT  53 AT TIME STEP 79, STRESS PERIOD   3
 UBDSV2 SAVING "   CONSTANT HEAD" ON UNIT  53 AT TIME STEP 79, STRESS PERIOD   3
 UBDSV1 SAVING "FLOW RIGHT FACE " ON UNIT  53 AT TIME STEP 79, STRESS PERIOD   3
 UBDSV1 SAVING "FLOW FRONT FACE " ON UNIT  53 AT TIME STEP 79, STRESS PERIOD   3
 UBDSV1 SAVING "FLOW LOWER FACE " ON UNIT  53 AT TIME STEP 79, STRESS PERIOD   3
1
              HEAD IN LAYER   1 AT END OF TIME STEP  79 IN STRESS PERIOD    3
  ---------------------------------------------------------------------------

            1           2           3           4           5           6           7           8           9          10
 ........................................................................................................................
   1    9.996       8.411       6.873       5.440       4.171       3.106       2.210       1.424      0.6994      2.3234E-03
   2    9.995       8.363       6.770       5.274       3.967       2.938       2.099       1.361      0.6723      2.2334E-03
   3    9.995       8.275       6.568       4.921       3.484       2.580       1.886       1.251      0.6262      2.0802E-03
   4    9.995       8.174       6.305       4.356       2.461       2.011       1.614       1.129      0.5796      1.9258E-03
   5    9.995       8.121       6.123       3.719     -0.4021       1.372       1.430       1.070      0.5616      1.8663E-03
   6    9.995       8.191       6.338       4.399       2.510       2.059       1.655       1.158      0.5952      1.9777E-03
   7    9.995       8.312       6.637       5.013       3.588       2.681       1.972       1.313      0.6588      2.1887E-03
   8    9.996       8.423       6.884       5.428       4.139       3.105       2.240       1.462      0.7247      2.4074E-03
   9    9.996       8.502       7.047       5.675       4.436       3.360       2.420       1.571      0.7751      2.5748E-03
  10    9.996       8.541       7.126       5.790       4.568       3.479       2.509       1.627      0.8017      2.6633E-03
1
              HEAD IN LAYER   2 AT END OF TIME STEP  79 IN STRESS PERIOD    3
  ---------------------------------------------------------------------------

            1           2           3           4           5           6           7           8           9          10
 ........................................................................................................................
   1    9.996       8.411       6.873       5.440       4.171       3.106       2.210       1.424      0.6994      2.3234E-03
   2    9.995       8.363       6.770       5.274       3.967       2.938       2.099       1.361      0.6723      2.2334E-03
   3    9.995       8.275       6.568       4.921       3.485       2.580       1.886       1.251      0.6262      2.0802E-03
   4    9.995       8.174       6.305       4.356       2.471       2.011       1.614       1.129      0.5796      1.9258E-03
   5    9.995       8.121       6.123       3.729      0.1037       1.382       1.430       1.070      0.5616      1.8663E-03
   6    9.995       8.191       6.338       4.399       2.519       2.059       1.655       1.158      0.5952      1.9777E-03
   7    9.995       8.312       6.637       5.013       3.588       2.681       1.972       1.313      0.6588      2.1887E-03
   8    9.996       8.423       6.884       5.428       4.139       3.105       2.240       1.462      0.7247      2.4074E-03
   9    9.996       8.502       7.047       5.675       4.436       3.360       2.420       1.571      0.7751      2.5748E-03
  10    9.996       8.541       7.126       5.790       4.568       3.479       2.509       1.627      0.8017      2.6633E-03
1
              HEAD IN LAYER   3 AT END OF TIME STEP  79 IN STRESS PERIOD    3
  ---------------------------------------------------------------------------

            1           2           3           4           5           6           7           8           9          10
 ........................................................................................................................
   1    9.996       8.411       6.873       5.440       4.171       3.106       2.210       1.424      0.6994      2.3234E-03
   2    9.995       8.363       6.770       5.274       3.967       2.938       2.099       1.361      0.6723      2.2334E-03
   3    9.995       8.275       6.568       4.921       3.485       2.580       1.886       1.251      0.6262      2.0802E-03
   4    9.995       8.174       6.305       4.357       2.479       2.012       1.614       1.129      0.5796      1.9258E-03
   5    9.995       8.121       6.123       3.736      0.3467       1.390       1.430       1.070      0.5616      1.8663E-03
   6    9.995       8.191       6.338       4.400       2.527       2.060       1.655       1.158      0.5952      1.9777E-03
   7    9.995       8.312       6.637       5.013       3.588       2.681       1.972       1.313      0.6588      2.1887E-03
   8    9.996       8.423       6.884       5.428       4.139       3.105       2.240       1.462      0.7247      2.4074E-03
   9    9.996       8.502       7.047       5.675       4.436       3.360       2.420       1.571      0.7751      2.5748E-03
  10    9.996       8.541       7.126       5.790       4.568       3.479       2.509       1.627      0.8017      2.6633E-03

 HEAD WILL BE SAVED ON UNIT   51 AT END OF TIME STEP   79, STRESS PERIOD    3

 DRAWDOWN WILL BE SAVED ON UNIT   52 AT END OF TIME STEP   79, STRESS PERIOD    3
1
  VOLUMETRIC BUDGET FOR ENTIRE MODEL AT END OF TIME STEP   79, STRESS PERIOD   3
  ------------------------------------------------------------------------------

     CUMULATIVE VOLUMES      L**3       RATES FOR THIS TIME STEP      L**3/T
     ------------------                 ------------------------

           IN:                                      IN:
           ---                                      ---
             STORAGE =       30388.2422               STORAGE =           1.5205
       CONSTANT HEAD =           0.0000         CONSTANT HEAD =           0.0000
               WELLS =           0.0000                 WELLS =           0.0000
       RIVER LEAKAGE =      111084.5156         RIVER LEAKAGE =         832.0623

            TOTAL IN =      141472.7500              TOTAL IN =         833.5828

          OUT:                                     OUT:
          ----                                     ----
             STORAGE =       4.0513E-02               STORAGE =       3.7328E-04
       CONSTANT HEAD =           0.0000         CONSTANT HEAD =           0.0000
               WELLS =       39500.0000                 WELLS =         500.0000
       RIVER LEAKAGE =      101983.2891         RIVER LEAKAGE =         333.6143

           TOTAL OUT =      141483.3281             TOTAL OUT =         833.6147

            IN - OUT =         -10.5781              IN - OUT =      -3.1982E-02

 PERCENT DISCREPANCY =          -0.01     PERCENT DISCREPANCY =          -0.00






         TIME SUMMARY AT END OF TIME STEP   79 IN STRESS PERIOD    3
                    SECONDS     MINUTES      HOURS       DAYS        YEARS
                    -----------------------------------------------------------
   TIME STEP LENGTH  86400.      1440.0      24.000      1.0000     2.73785E-03
 STRESS PERIOD TIME 6.82560E+06 1.13760E+05  1896.0      79.000     0.21629    
         TOTAL TIME 1.55520E+07 2.59200E+05  4320.0      180.00     0.49281    
1

 SOLVING FOR HEAD 

 OUTPUT CONTROL FOR STRESS PERIOD    3   TIME STEP   80
    SAVE HEAD FOR ALL LAYERS
    SAVE DRAWDOWN FOR ALL LAYERS
    SAVE BUDGET
    PRINT HEAD FOR ALL LAYERS
    PRINT BUDGET
 UBDSV1 SAVING "         STORAGE" ON UNIT  53 AT TIME STEP 80, STRESS PERIOD   3
 UBDSV2 SAVING "   CONSTANT HEAD" ON UNIT  53 AT TIME STEP 80, STRESS PERIOD   3
 UBDSV1 SAVING "FLOW RIGHT FACE " ON UNIT  53 AT TIME STEP 80, STRESS PERIOD   3
 UBDSV1 SAVING "FLOW FRONT FACE " ON UNIT  53 AT TIME STEP 80, STRESS PERIOD   3
 UBDSV1 SAVING "FLOW LOWER FACE " ON UNIT  53 AT TIME STEP 80, STRESS PERIOD   3
1
              HEAD IN LAYER   1 AT END OF TIME STEP  80 IN STRESS PERIOD    3
  ---------------------------------------------------------------------------

            1           2           3           4           5           6           7           8           9          10
 ........................................................................................................................
   1    9.996       8.410       6.873       5.439       4.171       3.106       2.210       1.423      0.6993      2.3231E-03
   2    9.995       8.363       6.769       5.274       3.967       2.938       2.099       1.361      0.6722      2.2331E-03
   3    9.995       8.275       6.567       4.920       3.484       2.580       1.886       1.250      0.6261      2.0799E-03
   4    9.995       8.174       6.305       4.355       2.460       2.011       1.614       1.128      0.5795      1.9255E-03
   5    9.995       8.121       6.122       3.718     -0.4027       1.371       1.430       1.069      0.5615      1.8660E-03
   6    9.995       8.191       6.337       4.399       2.509       2.058       1.655       1.158      0.5951      1.9774E-03
   7    9.995       8.311       6.636       5.013       3.588       2.681       1.972       1.313      0.6587      2.1884E-03
   8    9.996       8.423       6.883       5.428       4.139       3.105       2.240       1.462      0.7246      2.4071E-03
   9    9.996       8.502       7.047       5.675       4.436       3.360       2.420       1.571      0.7750      2.5746E-03
  10    9.996       8.541       7.126       5.790       4.568       3.479       2.509       1.627      0.8017      2.6631E-03
1
              HEAD IN LAYER   2 AT END OF TIME STEP  80 IN STRESS PERIOD    3
  ---------------------------------------------------------------------------

            1           2           3           4           5           6           7           8           9          10
 ........................................................................................................................
   1    9.996       8.410       6.873       5.439       4.171       3.106       2.210       1.423      0.6993      2.3231E-03
   2    9.995       8.363       6.769       5.274       3.967       2.938       2.099       1.361      0.6722      2.2331E-03
   3    9.995       8.275       6.567       4.920       3.484       2.580       1.886       1.250      0.6261      2.0799E-03
   4    9.995       8.174       6.305       4.356       2.470       2.011       1.614       1.128      0.5795      1.9255E-03
   5    9.995       8.121       6.123       3.728      0.1031       1.381       1.430       1.069      0.5615      1.8660E-03
   6    9.995       8.191       6.337       4.399       2.519       2.059       1.655       1.158      0.5951      1.9774E-03
   7    9.995       8.311       6.636       5.013       3.588       2.681       1.972       1.313      0.6587      2.1884E-03
   8    9.996       8.423       6.883       5.428       4.139       3.105       2.240       1.462      0.7246      2.4071E-03
   9    9.996       8.502       7.047       5.675       4.436       3.360       2.420       1.571      0.7750      2.5746E-03
  10    9.996       8.541       7.126       5.790       4.568       3.479       2.509       1.627      0.8017      2.6631E-03
1
              HEAD IN LAYER   3 AT END OF TIME STEP  80 IN STRESS PERIOD    3
  ---------------------------------------------------------------------------

            1           2           3           4           5           6           7           8           9          10
 ........................................................................................................................
   1    9.996       8.410       6.873       5.439       4.171       3.106       2.210       1.423      0.6993      2.3231E-03
   2    9.995       8.363       6.769       5.274       3.967       2.938       2.099       1.361      0.6722      2.2331E-03
   3    9.995       8.275       6.567       4.921       3.485       2.580       1.886       1.250      0.6261      2.0799E-03
   4    9.995       8.174       6.305       4.356       2.478       2.012       1.614       1.128      0.5795      1.9255E-03
   5    9.995       8.121       6.123       3.736      0.3461       1.389       1.430       1.069      0.5615      1.8660E-03
   6    9.995       8.191       6.337       4.400       2.527       2.059       1.655       1.158      0.5951      1.9774E-03
   7    9.995       8.311       6.636       5.013       3.588       2.681       1.972       1.313      0.6587      2.1884E-03
   8    9.996       8.423       6.883       5.428       4.139       3.105       2.240       1.462      0.7246      2.4071E-03
   9    9.996       8.502       7.047       5.675       4.436       3.360       2.420       1.571      0.7750      2.5746E-03
  10    9.996       8.541       7.126       5.790       4.568       3.479       2.509       1.627      0.8017      2.6631E-03

 HEAD WILL BE SAVED ON UNIT   51 AT END OF TIME STEP   80, STRESS PERIOD    3

 DRAWDOWN WILL BE SAVED ON UNIT   52 AT END OF TIME STEP   80, STRESS PERIOD    3
1
  VOLUMETRIC BUDGET FOR ENTIRE MODEL AT END OF TIME STEP   80, STRESS PERIOD   3
  ------------------------------------------------------------------------------

     CUMULATIVE VOLUMES      L**3       RATES FOR THIS TIME STEP      L**3/T
     ------------------                 ------------------------

           IN:                                      IN:
           ---                                      ---
             STORAGE =       30389.6738               STORAGE =           1.4325
       CONSTANT HEAD =           0.0000         CONSTANT HEAD =           0.0000
               WELLS =           0.0000                 WELLS =           0.0000
       RIVER LEAKAGE =      111916.6250         RIVER LEAKAGE =         832.1087

            TOTAL IN =      142306.2969              TOTAL IN =         833.5413

          OUT:                                     OUT:
          ----                                     ----
             STORAGE =       4.0956E-02               STORAGE =       4.4279E-04
       CONSTANT HEAD =           0.0000         CONSTANT HEAD =           0.0000
               WELLS =       40000.0000                 WELLS =         500.0000
       RIVER LEAKAGE =      102316.8594         RIVER LEAKAGE =         333.5728

           TOTAL OUT =      142316.9062             TOTAL OUT =         833.5732

            IN - OUT =         -10.6094              IN - OUT =      -3.1982E-02

 PERCENT DISCREPANCY =          -0.01     PERCENT DISCREPANCY =          -0.00






         TIME SUMMARY AT END OF TIME STEP   80 IN STRESS PERIOD    3
                    SECONDS     MINUTES      HOURS       DAYS        YEARS
                    -----------------------------------------------------------
   TIME STEP LENGTH  86400.      1440.0      24.000      1.0000     2.73785E-03
 STRESS PERIOD TIME 6.91200E+06 1.15200E+05  1920.0      80.000     0.21903    
         TOTAL TIME 1.56384E+07 2.60640E+05  4344.0      181.00     0.49555    
1

 SOLVING FOR HEAD 

 OUTPUT CONTROL FOR STRESS PERIOD    3   TIME STEP   81
    SAVE HEAD FOR ALL LAYERS
    SAVE DRAWDOWN FOR ALL LAYERS
    SAVE BUDGET
    PRINT HEAD FOR ALL LAYERS
    PRINT BUDGET
 UBDSV1 SAVING "         STORAGE" ON UNIT  53 AT TIME STEP 81, STRESS PERIOD   3
 UBDSV2 SAVING "   CONSTANT HEAD" ON UNIT  53 AT TIME STEP 81, STRESS PERIOD   3
 UBDSV1 SAVING "FLOW RIGHT FACE " ON UNIT  53 AT TIME STEP 81, STRESS PERIOD   3
 UBDSV1 SAVING "FLOW FRONT FACE " ON UNIT  53 AT TIME STEP 81, STRESS PERIOD   3
 UBDSV1 SAVING "FLOW LOWER FACE " ON UNIT  53 AT TIME STEP 81, STRESS PERIOD   3
1
              HEAD IN LAYER   1 AT END OF TIME STEP  81 IN STRESS PERIOD    3
  ---------------------------------------------------------------------------

            1           2           3           4           5           6           7           8           9          10
 ........................................................................................................................
   1    9.996       8.410       6.873       5.439       4.171       3.106       2.209       1.423      0.6993      2.3229E-03
   2    9.995       8.362       6.769       5.274       3.967       2.938       2.098       1.361      0.6722      2.2329E-03
   3    9.995       8.275       6.567       4.920       3.484       2.580       1.886       1.250      0.6260      2.0797E-03
   4    9.995       8.174       6.305       4.355       2.460       2.010       1.614       1.128      0.5794      1.9252E-03
   5    9.995       8.121       6.122       3.718     -0.4033       1.371       1.429       1.069      0.5614      1.8657E-03
   6    9.995       8.191       6.337       4.398       2.509       2.058       1.655       1.158      0.5950      1.9771E-03
   7    9.995       8.311       6.636       5.013       3.587       2.681       1.972       1.313      0.6586      2.1881E-03
   8    9.996       8.423       6.883       5.427       4.139       3.105       2.240       1.462      0.7245      2.4069E-03
   9    9.996       8.502       7.046       5.675       4.435       3.360       2.420       1.571      0.7750      2.5743E-03
  10    9.996       8.541       7.126       5.790       4.568       3.479       2.509       1.627      0.8016      2.6629E-03
1
              HEAD IN LAYER   2 AT END OF TIME STEP  81 IN STRESS PERIOD    3
  ---------------------------------------------------------------------------

            1           2           3           4           5           6           7           8           9          10
 ........................................................................................................................
   1    9.996       8.410       6.873       5.439       4.171       3.106       2.209       1.423      0.6993      2.3229E-03
   2    9.995       8.362       6.769       5.274       3.967       2.938       2.098       1.361      0.6722      2.2329E-03
   3    9.995       8.275       6.567       4.920       3.484       2.580       1.886       1.250      0.6260      2.0797E-03
   4    9.995       8.174       6.305       4.355       2.470       2.011       1.614       1.128      0.5794      1.9252E-03
   5    9.995       8.121       6.123       3.728      0.1026       1.381       1.429       1.069      0.5614      1.8657E-03
   6    9.995       8.191       6.337       4.399       2.519       2.059       1.655       1.158      0.5950      1.9771E-03
   7    9.995       8.311       6.636       5.013       3.588       2.681       1.972       1.313      0.6586      2.1881E-03
   8    9.996       8.423       6.883       5.427       4.139       3.105       2.240       1.462      0.7245      2.4069E-03
   9    9.996       8.502       7.046       5.675       4.435       3.360       2.420       1.571      0.7750      2.5743E-03
  10    9.996       8.541       7.126       5.790       4.568       3.479       2.509       1.627      0.8016      2.6629E-03
1
              HEAD IN LAYER   3 AT END OF TIME STEP  81 IN STRESS PERIOD    3
  ---------------------------------------------------------------------------

            1           2           3           4           5           6           7           8           9          10
 ........................................................................................................................
   1    9.996       8.410       6.873       5.439       4.171       3.106       2.209       1.423      0.6993      2.3229E-03
   2    9.995       8.362       6.769       5.274       3.967       2.938       2.098       1.361      0.6722      2.2329E-03
   3    9.995       8.275       6.567       4.920       3.484       2.580       1.886       1.250      0.6260      2.0797E-03
   4    9.995       8.174       6.305       4.356       2.478       2.011       1.614       1.128      0.5794      1.9252E-03
   5    9.995       8.121       6.123       3.736      0.3455       1.389       1.430       1.069      0.5614      1.8657E-03
   6    9.995       8.191       6.337       4.399       2.527       2.059       1.655       1.158      0.5950      1.9771E-03
   7    9.995       8.311       6.636       5.013       3.588       2.681       1.972       1.313      0.6586      2.1881E-03
   8    9.996       8.423       6.883       5.427       4.139       3.105       2.240       1.462      0.7245      2.4069E-03
   9    9.996       8.502       7.046       5.675       4.435       3.360       2.420       1.571      0.7750      2.5743E-03
  10    9.996       8.541       7.126       5.790       4.568       3.479       2.509       1.627      0.8016      2.6629E-03

 HEAD WILL BE SAVED ON UNIT   51 AT END OF TIME STEP   81, STRESS PERIOD    3

 DRAWDOWN WILL BE SAVED ON UNIT   52 AT END OF TIME STEP   81, STRESS PERIOD    3
1
  VOLUMETRIC BUDGET FOR ENTIRE MODEL AT END OF TIME STEP   81, STRESS PERIOD   3
  ------------------------------------------------------------------------------

     CUMULATIVE VOLUMES      L**3       RATES FOR THIS TIME STEP      L**3/T
     ------------------                 ------------------------

           IN:                                      IN:
           ---                                      ---
             STORAGE =       30391.0234               STORAGE =           1.3496
       CONSTANT HEAD =           0.0000         CONSTANT HEAD =           0.0000
               WELLS =           0.0000                 WELLS =           0.0000
       RIVER LEAKAGE =      112748.7812         RIVER LEAKAGE =         832.1525

            TOTAL IN =      143139.8125              TOTAL IN =         833.5021

          OUT:                                     OUT:
          ----                                     ----
             STORAGE =       4.1451E-02               STORAGE =       4.9542E-04
       CONSTANT HEAD =           0.0000         CONSTANT HEAD =           0.0000
               WELLS =       40500.0000                 WELLS =         500.0000
       RIVER LEAKAGE =      102650.3906         RIVER LEAKAGE =         333.5337

           TOTAL OUT =      143150.4375             TOTAL OUT =         833.5342

            IN - OUT =         -10.6250              IN - OUT =      -3.2104E-02

 PERCENT DISCREPANCY =          -0.01     PERCENT DISCREPANCY =          -0.00






         TIME SUMMARY AT END OF TIME STEP   81 IN STRESS PERIOD    3
                    SECONDS     MINUTES      HOURS       DAYS        YEARS
                    -----------------------------------------------------------
   TIME STEP LENGTH  86400.      1440.0      24.000      1.0000     2.73785E-03
 STRESS PERIOD TIME 6.99840E+06 1.16640E+05  1944.0      81.000     0.22177    
         TOTAL TIME 1.57248E+07 2.62080E+05  4368.0      182.00     0.49829    
1

 SOLVING FOR HEAD 

 OUTPUT CONTROL FOR STRESS PERIOD    3   TIME STEP   82
    SAVE HEAD FOR ALL LAYERS
    SAVE DRAWDOWN FOR ALL LAYERS
    SAVE BUDGET
    PRINT HEAD FOR ALL LAYERS
    PRINT BUDGET
 UBDSV1 SAVING "         STORAGE" ON UNIT  53 AT TIME STEP 82, STRESS PERIOD   3
 UBDSV2 SAVING "   CONSTANT HEAD" ON UNIT  53 AT TIME STEP 82, STRESS PERIOD   3
 UBDSV1 SAVING "FLOW RIGHT FACE " ON UNIT  53 AT TIME STEP 82, STRESS PERIOD   3
 UBDSV1 SAVING "FLOW FRONT FACE " ON UNIT  53 AT TIME STEP 82, STRESS PERIOD   3
 UBDSV1 SAVING "FLOW LOWER FACE " ON UNIT  53 AT TIME STEP 82, STRESS PERIOD   3
1
              HEAD IN LAYER   1 AT END OF TIME STEP  82 IN STRESS PERIOD    3
  ---------------------------------------------------------------------------

            1           2           3           4           5           6           7           8           9          10
 ........................................................................................................................
   1    9.996       8.410       6.873       5.439       4.171       3.106       2.209       1.423      0.6992      2.3226E-03
   2    9.995       8.362       6.769       5.274       3.966       2.937       2.098       1.361      0.6721      2.2326E-03
   3    9.995       8.275       6.567       4.920       3.484       2.579       1.885       1.250      0.6259      2.0794E-03
   4    9.995       8.174       6.305       4.355       2.460       2.010       1.613       1.128      0.5793      1.9249E-03
   5    9.995       8.120       6.122       3.718     -0.4039       1.370       1.429       1.069      0.5613      1.8654E-03
   6    9.995       8.191       6.337       4.398       2.508       2.058       1.654       1.158      0.5949      1.9768E-03
   7    9.995       8.311       6.636       5.012       3.587       2.681       1.972       1.313      0.6585      2.1879E-03
   8    9.996       8.423       6.883       5.427       4.139       3.105       2.240       1.462      0.7245      2.4066E-03
   9    9.996       8.502       7.046       5.675       4.435       3.360       2.420       1.571      0.7749      2.5741E-03
  10    9.996       8.541       7.126       5.789       4.568       3.479       2.509       1.627      0.8016      2.6627E-03
1
              HEAD IN LAYER   2 AT END OF TIME STEP  82 IN STRESS PERIOD    3
  ---------------------------------------------------------------------------

            1           2           3           4           5           6           7           8           9          10
 ........................................................................................................................
   1    9.996       8.410       6.873       5.439       4.171       3.106       2.209       1.423      0.6992      2.3226E-03
   2    9.995       8.362       6.769       5.274       3.966       2.937       2.098       1.361      0.6721      2.2326E-03
   3    9.995       8.275       6.567       4.920       3.484       2.579       1.885       1.250      0.6259      2.0794E-03
   4    9.995       8.174       6.305       4.355       2.470       2.010       1.613       1.128      0.5793      1.9249E-03
   5    9.995       8.120       6.122       3.728      0.1020       1.381       1.429       1.069      0.5613      1.8654E-03
   6    9.995       8.191       6.337       4.399       2.518       2.058       1.654       1.158      0.5949      1.9768E-03
   7    9.995       8.311       6.636       5.012       3.587       2.681       1.972       1.313      0.6585      2.1879E-03
   8    9.996       8.423       6.883       5.427       4.139       3.105       2.240       1.462      0.7245      2.4066E-03
   9    9.996       8.502       7.046       5.675       4.435       3.360       2.420       1.571      0.7749      2.5741E-03
  10    9.996       8.541       7.126       5.789       4.568       3.479       2.509       1.627      0.8016      2.6627E-03
1
              HEAD IN LAYER   3 AT END OF TIME STEP  82 IN STRESS PERIOD    3
  ---------------------------------------------------------------------------

            1           2           3           4           5           6           7           8           9          10
 ........................................................................................................................
   1    9.996       8.410       6.873       5.439       4.171       3.106       2.209       1.423      0.6992      2.3226E-03
   2    9.995       8.362       6.769       5.274       3.966       2.937       2.098       1.361      0.6721      2.2326E-03
   3    9.995       8.275       6.567       4.920       3.484       2.579       1.885       1.250      0.6259      2.0794E-03
   4    9.995       8.174       6.305       4.356       2.478       2.011       1.613       1.128      0.5793      1.9249E-03
   5    9.995       8.120       6.123       3.735      0.3450       1.389       1.429       1.069      0.5613      1.8654E-03
   6    9.995       8.191       6.337       4.399       2.526       2.059       1.654       1.158      0.5949      1.9768E-03
   7    9.995       8.311       6.636       5.012       3.588       2.681       1.972       1.313      0.6585      2.1879E-03
   8    9.996       8.423       6.883       5.427       4.139       3.105       2.240       1.462      0.7245      2.4066E-03
   9    9.996       8.502       7.046       5.675       4.435       3.360       2.420       1.571      0.7749      2.5741E-03
  10    9.996       8.541       7.126       5.789       4.568       3.479       2.509       1.627      0.8016      2.6627E-03

 HEAD WILL BE SAVED ON UNIT   51 AT END OF TIME STEP   82, STRESS PERIOD    3

 DRAWDOWN WILL BE SAVED ON UNIT   52 AT END OF TIME STEP   82, STRESS PERIOD    3
1
  VOLUMETRIC BUDGET FOR ENTIRE MODEL AT END OF TIME STEP   82, STRESS PERIOD   3
  ------------------------------------------------------------------------------

     CUMULATIVE VOLUMES      L**3       RATES FOR THIS TIME STEP      L**3/T
     ------------------                 ------------------------

           IN:                                      IN:
           ---                                      ---
             STORAGE =       30392.2949               STORAGE =           1.2716
       CONSTANT HEAD =           0.0000         CONSTANT HEAD =           0.0000
               WELLS =           0.0000                 WELLS =           0.0000
       RIVER LEAKAGE =      113580.9766         RIVER LEAKAGE =         832.1937

            TOTAL IN =      143973.2656              TOTAL IN =         833.4652

          OUT:                                     OUT:
          ----                                     ----
             STORAGE =       4.1865E-02               STORAGE =       4.1351E-04
       CONSTANT HEAD =           0.0000         CONSTANT HEAD =           0.0000
               WELLS =       41000.0000                 WELLS =         500.0000
       RIVER LEAKAGE =      102983.8906         RIVER LEAKAGE =         333.4969

           TOTAL OUT =      143983.9375             TOTAL OUT =         833.4974

            IN - OUT =         -10.6719              IN - OUT =      -3.2166E-02

 PERCENT DISCREPANCY =          -0.01     PERCENT DISCREPANCY =          -0.00






         TIME SUMMARY AT END OF TIME STEP   82 IN STRESS PERIOD    3
                    SECONDS     MINUTES      HOURS       DAYS        YEARS
                    -----------------------------------------------------------
   TIME STEP LENGTH  86400.      1440.0      24.000      1.0000     2.73785E-03
 STRESS PERIOD TIME 7.08480E+06 1.18080E+05  1968.0      82.000     0.22450    
         TOTAL TIME 1.58112E+07 2.63520E+05  4392.0      183.00     0.50103    
1

 SOLVING FOR HEAD 

 OUTPUT CONTROL FOR STRESS PERIOD    3   TIME STEP   83
    SAVE HEAD FOR ALL LAYERS
    SAVE DRAWDOWN FOR ALL LAYERS
    SAVE BUDGET
    PRINT HEAD FOR ALL LAYERS
    PRINT BUDGET
 UBDSV1 SAVING "         STORAGE" ON UNIT  53 AT TIME STEP 83, STRESS PERIOD   3
 UBDSV2 SAVING "   CONSTANT HEAD" ON UNIT  53 AT TIME STEP 83, STRESS PERIOD   3
 UBDSV1 SAVING "FLOW RIGHT FACE " ON UNIT  53 AT TIME STEP 83, STRESS PERIOD   3
 UBDSV1 SAVING "FLOW FRONT FACE " ON UNIT  53 AT TIME STEP 83, STRESS PERIOD   3
 UBDSV1 SAVING "FLOW LOWER FACE " ON UNIT  53 AT TIME STEP 83, STRESS PERIOD   3
1
              HEAD IN LAYER   1 AT END OF TIME STEP  83 IN STRESS PERIOD    3
  ---------------------------------------------------------------------------

            1           2           3           4           5           6           7           8           9          10
 ........................................................................................................................
   1    9.996       8.410       6.873       5.439       4.170       3.106       2.209       1.423      0.6991      2.3224E-03
   2    9.995       8.362       6.769       5.273       3.966       2.937       2.098       1.361      0.6720      2.2324E-03
   3    9.995       8.275       6.567       4.920       3.483       2.579       1.885       1.250      0.6258      2.0792E-03
   4    9.995       8.174       6.304       4.354       2.459       2.010       1.613       1.128      0.5792      1.9247E-03
   5    9.995       8.120       6.122       3.718     -0.4045       1.370       1.429       1.069      0.5612      1.8652E-03
   6    9.995       8.191       6.337       4.398       2.508       2.057       1.654       1.158      0.5948      1.9766E-03
   7    9.995       8.311       6.636       5.012       3.587       2.680       1.972       1.312      0.6585      2.1876E-03
   8    9.996       8.423       6.883       5.427       4.138       3.104       2.239       1.462      0.7244      2.4064E-03
   9    9.996       8.501       7.046       5.674       4.435       3.359       2.420       1.571      0.7748      2.5739E-03
  10    9.996       8.541       7.125       5.789       4.568       3.479       2.508       1.627      0.8015      2.6625E-03
1
              HEAD IN LAYER   2 AT END OF TIME STEP  83 IN STRESS PERIOD    3
  ---------------------------------------------------------------------------

            1           2           3           4           5           6           7           8           9          10
 ........................................................................................................................
   1    9.996       8.410       6.873       5.439       4.170       3.106       2.209       1.423      0.6991      2.3224E-03
   2    9.995       8.362       6.769       5.273       3.966       2.937       2.098       1.361      0.6720      2.2324E-03
   3    9.995       8.275       6.567       4.920       3.483       2.579       1.885       1.250      0.6258      2.0792E-03
   4    9.995       8.174       6.304       4.355       2.469       2.010       1.613       1.128      0.5792      1.9247E-03
   5    9.995       8.120       6.122       3.727      0.1015       1.380       1.429       1.069      0.5612      1.8652E-03
   6    9.995       8.191       6.337       4.398       2.518       2.058       1.654       1.158      0.5948      1.9766E-03
   7    9.995       8.311       6.636       5.012       3.587       2.680       1.972       1.312      0.6585      2.1876E-03
   8    9.996       8.423       6.883       5.427       4.138       3.104       2.239       1.462      0.7244      2.4064E-03
   9    9.996       8.501       7.046       5.674       4.435       3.359       2.420       1.571      0.7748      2.5739E-03
  10    9.996       8.541       7.125       5.789       4.568       3.479       2.508       1.627      0.8015      2.6625E-03
1
              HEAD IN LAYER   3 AT END OF TIME STEP  83 IN STRESS PERIOD    3
  ---------------------------------------------------------------------------

            1           2           3           4           5           6           7           8           9          10
 ........................................................................................................................
   1    9.996       8.410       6.873       5.439       4.170       3.106       2.209       1.423      0.6991      2.3224E-03
   2    9.995       8.362       6.769       5.273       3.966       2.937       2.098       1.361      0.6720      2.2324E-03
   3    9.995       8.275       6.567       4.920       3.484       2.579       1.885       1.250      0.6258      2.0791E-03
   4    9.995       8.174       6.304       4.355       2.477       2.011       1.613       1.128      0.5792      1.9247E-03
   5    9.995       8.120       6.122       3.735      0.3445       1.388       1.429       1.069      0.5612      1.8652E-03
   6    9.995       8.191       6.337       4.399       2.526       2.058       1.654       1.158      0.5948      1.9766E-03
   7    9.995       8.311       6.636       5.012       3.587       2.680       1.972       1.312      0.6585      2.1877E-03
   8    9.996       8.423       6.883       5.427       4.138       3.104       2.239       1.462      0.7244      2.4064E-03
   9    9.996       8.501       7.046       5.674       4.435       3.359       2.420       1.571      0.7748      2.5739E-03
  10    9.996       8.541       7.125       5.789       4.568       3.479       2.508       1.627      0.8015      2.6625E-03

 HEAD WILL BE SAVED ON UNIT   51 AT END OF TIME STEP   83, STRESS PERIOD    3

 DRAWDOWN WILL BE SAVED ON UNIT   52 AT END OF TIME STEP   83, STRESS PERIOD    3
1
  VOLUMETRIC BUDGET FOR ENTIRE MODEL AT END OF TIME STEP   83, STRESS PERIOD   3
  ------------------------------------------------------------------------------

     CUMULATIVE VOLUMES      L**3       RATES FOR THIS TIME STEP      L**3/T
     ------------------                 ------------------------

           IN:                                      IN:
           ---                                      ---
             STORAGE =       30393.4922               STORAGE =           1.1977
       CONSTANT HEAD =           0.0000         CONSTANT HEAD =           0.0000
               WELLS =           0.0000                 WELLS =           0.0000
       RIVER LEAKAGE =      114413.2109         RIVER LEAKAGE =         832.2325

            TOTAL IN =      144806.7031              TOTAL IN =         833.4302

          OUT:                                     OUT:
          ----                                     ----
             STORAGE =       4.2247E-02               STORAGE =       3.8226E-04
       CONSTANT HEAD =           0.0000         CONSTANT HEAD =           0.0000
               WELLS =       41500.0000                 WELLS =         500.0000
       RIVER LEAKAGE =      103317.3516         RIVER LEAKAGE =         333.4623

           TOTAL OUT =      144817.3906             TOTAL OUT =         833.4627

            IN - OUT =         -10.6875              IN - OUT =      -3.2471E-02

 PERCENT DISCREPANCY =          -0.01     PERCENT DISCREPANCY =          -0.00






         TIME SUMMARY AT END OF TIME STEP   83 IN STRESS PERIOD    3
                    SECONDS     MINUTES      HOURS       DAYS        YEARS
                    -----------------------------------------------------------
   TIME STEP LENGTH  86400.      1440.0      24.000      1.0000     2.73785E-03
 STRESS PERIOD TIME 7.17120E+06 1.19520E+05  1992.0      83.000     0.22724    
         TOTAL TIME 1.58976E+07 2.64960E+05  4416.0      184.00     0.50376    
1

 SOLVING FOR HEAD 

 OUTPUT CONTROL FOR STRESS PERIOD    3   TIME STEP   84
    SAVE HEAD FOR ALL LAYERS
    SAVE DRAWDOWN FOR ALL LAYERS
    SAVE BUDGET
    PRINT HEAD FOR ALL LAYERS
    PRINT BUDGET
 UBDSV1 SAVING "         STORAGE" ON UNIT  53 AT TIME STEP 84, STRESS PERIOD   3
 UBDSV2 SAVING "   CONSTANT HEAD" ON UNIT  53 AT TIME STEP 84, STRESS PERIOD   3
 UBDSV1 SAVING "FLOW RIGHT FACE " ON UNIT  53 AT TIME STEP 84, STRESS PERIOD   3
 UBDSV1 SAVING "FLOW FRONT FACE " ON UNIT  53 AT TIME STEP 84, STRESS PERIOD   3
 UBDSV1 SAVING "FLOW LOWER FACE " ON UNIT  53 AT TIME STEP 84, STRESS PERIOD   3
1
              HEAD IN LAYER   1 AT END OF TIME STEP  84 IN STRESS PERIOD    3
  ---------------------------------------------------------------------------

            1           2           3           4           5           6           7           8           9          10
 ........................................................................................................................
   1    9.996       8.410       6.873       5.439       4.170       3.105       2.209       1.423      0.6991      2.3222E-03
   2    9.995       8.362       6.769       5.273       3.966       2.937       2.098       1.361      0.6719      2.2322E-03
   3    9.995       8.274       6.567       4.920       3.483       2.579       1.885       1.250      0.6258      2.0789E-03
   4    9.995       8.174       6.304       4.354       2.459       2.009       1.613       1.128      0.5792      1.9244E-03
   5    9.995       8.120       6.122       3.717     -0.4050       1.370       1.429       1.069      0.5612      1.8649E-03
   6    9.995       8.191       6.337       4.398       2.508       2.057       1.654       1.157      0.5948      1.9763E-03
   7    9.995       8.311       6.636       5.012       3.587       2.680       1.971       1.312      0.6584      2.1874E-03
   8    9.996       8.423       6.883       5.427       4.138       3.104       2.239       1.462      0.7243      2.4062E-03
   9    9.996       8.501       7.046       5.674       4.435       3.359       2.419       1.571      0.7748      2.5737E-03
  10    9.996       8.541       7.125       5.789       4.568       3.478       2.508       1.627      0.8014      2.6623E-03
1
              HEAD IN LAYER   2 AT END OF TIME STEP  84 IN STRESS PERIOD    3
  ---------------------------------------------------------------------------

            1           2           3           4           5           6           7           8           9          10
 ........................................................................................................................
   1    9.996       8.410       6.873       5.439       4.170       3.105       2.209       1.423      0.6991      2.3222E-03
   2    9.995       8.362       6.769       5.273       3.966       2.937       2.098       1.361      0.6719      2.2322E-03
   3    9.995       8.274       6.567       4.920       3.483       2.579       1.885       1.250      0.6258      2.0789E-03
   4    9.995       8.174       6.304       4.355       2.469       2.010       1.613       1.128      0.5792      1.9244E-03
   5    9.995       8.120       6.122       3.727      0.1010       1.380       1.429       1.069      0.5612      1.8649E-03
   6    9.995       8.191       6.337       4.398       2.518       2.058       1.654       1.157      0.5948      1.9763E-03
   7    9.995       8.311       6.636       5.012       3.587       2.680       1.971       1.312      0.6584      2.1874E-03
   8    9.996       8.423       6.883       5.427       4.138       3.104       2.239       1.462      0.7243      2.4062E-03
   9    9.996       8.501       7.046       5.674       4.435       3.359       2.419       1.571      0.7748      2.5737E-03
  10    9.996       8.541       7.125       5.789       4.568       3.478       2.508       1.627      0.8014      2.6623E-03
1
              HEAD IN LAYER   3 AT END OF TIME STEP  84 IN STRESS PERIOD    3
  ---------------------------------------------------------------------------

            1           2           3           4           5           6           7           8           9          10
 ........................................................................................................................
   1    9.996       8.410       6.873       5.439       4.170       3.105       2.209       1.423      0.6991      2.3222E-03
   2    9.995       8.362       6.769       5.273       3.966       2.937       2.098       1.361      0.6719      2.2322E-03
   3    9.995       8.274       6.567       4.920       3.483       2.579       1.885       1.250      0.6258      2.0789E-03
   4    9.995       8.174       6.304       4.355       2.477       2.010       1.613       1.128      0.5792      1.9244E-03
   5    9.995       8.120       6.122       3.735      0.3441       1.388       1.429       1.069      0.5612      1.8649E-03
   6    9.995       8.191       6.337       4.398       2.526       2.058       1.654       1.157      0.5948      1.9763E-03
   7    9.995       8.311       6.636       5.012       3.587       2.680       1.971       1.312      0.6584      2.1874E-03
   8    9.996       8.423       6.883       5.427       4.138       3.104       2.239       1.462      0.7243      2.4062E-03
   9    9.996       8.501       7.046       5.674       4.435       3.359       2.419       1.571      0.7748      2.5737E-03
  10    9.996       8.541       7.125       5.789       4.568       3.478       2.508       1.627      0.8014      2.6623E-03

 HEAD WILL BE SAVED ON UNIT   51 AT END OF TIME STEP   84, STRESS PERIOD    3

 DRAWDOWN WILL BE SAVED ON UNIT   52 AT END OF TIME STEP   84, STRESS PERIOD    3
1
  VOLUMETRIC BUDGET FOR ENTIRE MODEL AT END OF TIME STEP   84, STRESS PERIOD   3
  ------------------------------------------------------------------------------

     CUMULATIVE VOLUMES      L**3       RATES FOR THIS TIME STEP      L**3/T
     ------------------                 ------------------------

           IN:                                      IN:
           ---                                      ---
             STORAGE =       30394.6211               STORAGE =           1.1283
       CONSTANT HEAD =           0.0000         CONSTANT HEAD =           0.0000
               WELLS =           0.0000                 WELLS =           0.0000
       RIVER LEAKAGE =      115245.4766         RIVER LEAKAGE =         832.2692

            TOTAL IN =      145640.0938              TOTAL IN =         833.3975

          OUT:                                     OUT:
          ----                                     ----
             STORAGE =       4.2713E-02               STORAGE =       4.6622E-04
       CONSTANT HEAD =           0.0000         CONSTANT HEAD =           0.0000
               WELLS =       42000.0000                 WELLS =         500.0000
       RIVER LEAKAGE =      103650.7812         RIVER LEAKAGE =         333.4295

           TOTAL OUT =      145650.8281             TOTAL OUT =         833.4300

            IN - OUT =         -10.7344              IN - OUT =      -3.2471E-02

 PERCENT DISCREPANCY =          -0.01     PERCENT DISCREPANCY =          -0.00






         TIME SUMMARY AT END OF TIME STEP   84 IN STRESS PERIOD    3
                    SECONDS     MINUTES      HOURS       DAYS        YEARS
                    -----------------------------------------------------------
   TIME STEP LENGTH  86400.      1440.0      24.000      1.0000     2.73785E-03
 STRESS PERIOD TIME 7.25760E+06 1.20960E+05  2016.0      84.000     0.22998    
         TOTAL TIME 1.59840E+07 2.66400E+05  4440.0      185.00     0.50650    
1

 SOLVING FOR HEAD 

 OUTPUT CONTROL FOR STRESS PERIOD    3   TIME STEP   85
    SAVE HEAD FOR ALL LAYERS
    SAVE DRAWDOWN FOR ALL LAYERS
    SAVE BUDGET
    PRINT HEAD FOR ALL LAYERS
    PRINT BUDGET
 UBDSV1 SAVING "         STORAGE" ON UNIT  53 AT TIME STEP 85, STRESS PERIOD   3
 UBDSV2 SAVING "   CONSTANT HEAD" ON UNIT  53 AT TIME STEP 85, STRESS PERIOD   3
 UBDSV1 SAVING "FLOW RIGHT FACE " ON UNIT  53 AT TIME STEP 85, STRESS PERIOD   3
 UBDSV1 SAVING "FLOW FRONT FACE " ON UNIT  53 AT TIME STEP 85, STRESS PERIOD   3
 UBDSV1 SAVING "FLOW LOWER FACE " ON UNIT  53 AT TIME STEP 85, STRESS PERIOD   3
1
              HEAD IN LAYER   1 AT END OF TIME STEP  85 IN STRESS PERIOD    3
  ---------------------------------------------------------------------------

            1           2           3           4           5           6           7           8           9          10
 ........................................................................................................................
   1    9.996       8.410       6.872       5.439       4.170       3.105       2.209       1.423      0.6990      2.3220E-03
   2    9.995       8.362       6.769       5.273       3.966       2.937       2.098       1.361      0.6719      2.2320E-03
   3    9.995       8.274       6.567       4.919       3.483       2.579       1.885       1.250      0.6257      2.0787E-03
   4    9.995       8.173       6.304       4.354       2.459       2.009       1.613       1.128      0.5791      1.9242E-03
   5    9.995       8.120       6.122       3.717     -0.4054       1.370       1.428       1.069      0.5611      1.8647E-03
   6    9.995       8.191       6.336       4.397       2.507       2.057       1.654       1.157      0.5947      1.9761E-03
   7    9.995       8.311       6.636       5.012       3.586       2.680       1.971       1.312      0.6583      2.1872E-03
   8    9.996       8.423       6.883       5.427       4.138       3.104       2.239       1.462      0.7243      2.4060E-03
   9    9.996       8.501       7.046       5.674       4.435       3.359       2.419       1.571      0.7747      2.5736E-03
  10    9.996       8.541       7.125       5.789       4.567       3.478       2.508       1.627      0.8014      2.6621E-03
1
              HEAD IN LAYER   2 AT END OF TIME STEP  85 IN STRESS PERIOD    3
  ---------------------------------------------------------------------------

            1           2           3           4           5           6           7           8           9          10
 ........................................................................................................................
   1    9.996       8.410       6.872       5.439       4.170       3.105       2.209       1.423      0.6990      2.3220E-03
   2    9.995       8.362       6.769       5.273       3.966       2.937       2.098       1.361      0.6719      2.2320E-03
   3    9.995       8.274       6.567       4.919       3.483       2.579       1.885       1.250      0.6257      2.0787E-03
   4    9.995       8.173       6.304       4.354       2.469       2.010       1.613       1.128      0.5791      1.9242E-03
   5    9.995       8.120       6.122       3.727      0.1006       1.380       1.429       1.069      0.5611      1.8647E-03
   6    9.995       8.191       6.337       4.398       2.517       2.057       1.654       1.157      0.5947      1.9761E-03
   7    9.995       8.311       6.636       5.012       3.587       2.680       1.971       1.312      0.6583      2.1872E-03
   8    9.996       8.423       6.883       5.427       4.138       3.104       2.239       1.462      0.7243      2.4060E-03
   9    9.996       8.501       7.046       5.674       4.435       3.359       2.419       1.571      0.7747      2.5736E-03
  10    9.996       8.541       7.125       5.789       4.567       3.478       2.508       1.627      0.8014      2.6621E-03
1
              HEAD IN LAYER   3 AT END OF TIME STEP  85 IN STRESS PERIOD    3
  ---------------------------------------------------------------------------

            1           2           3           4           5           6           7           8           9          10
 ........................................................................................................................
   1    9.996       8.410       6.872       5.439       4.170       3.105       2.209       1.423      0.6990      2.3220E-03
   2    9.995       8.362       6.769       5.273       3.966       2.937       2.098       1.361      0.6719      2.2319E-03
   3    9.995       8.274       6.567       4.919       3.483       2.579       1.885       1.250      0.6257      2.0787E-03
   4    9.995       8.173       6.304       4.355       2.477       2.010       1.613       1.128      0.5791      1.9242E-03
   5    9.995       8.120       6.122       3.734      0.3436       1.388       1.429       1.069      0.5611      1.8647E-03
   6    9.995       8.191       6.337       4.398       2.525       2.058       1.654       1.157      0.5947      1.9761E-03
   7    9.995       8.311       6.636       5.012       3.587       2.680       1.971       1.312      0.6583      2.1872E-03
   8    9.996       8.423       6.883       5.427       4.138       3.104       2.239       1.462      0.7243      2.4060E-03
   9    9.996       8.501       7.046       5.674       4.435       3.359       2.419       1.571      0.7747      2.5736E-03
  10    9.996       8.541       7.125       5.789       4.567       3.478       2.508       1.627      0.8014      2.6621E-03

 HEAD WILL BE SAVED ON UNIT   51 AT END OF TIME STEP   85, STRESS PERIOD    3

 DRAWDOWN WILL BE SAVED ON UNIT   52 AT END OF TIME STEP   85, STRESS PERIOD    3
1
  VOLUMETRIC BUDGET FOR ENTIRE MODEL AT END OF TIME STEP   85, STRESS PERIOD   3
  ------------------------------------------------------------------------------

     CUMULATIVE VOLUMES      L**3       RATES FOR THIS TIME STEP      L**3/T
     ------------------                 ------------------------

           IN:                                      IN:
           ---                                      ---
             STORAGE =       30395.6836               STORAGE =           1.0629
       CONSTANT HEAD =           0.0000         CONSTANT HEAD =           0.0000
               WELLS =           0.0000                 WELLS =           0.0000
       RIVER LEAKAGE =      116077.7812         RIVER LEAKAGE =         832.3036

            TOTAL IN =      146473.4688              TOTAL IN =         833.3665

          OUT:                                     OUT:
          ----                                     ----
             STORAGE =       4.3167E-02               STORAGE =       4.5422E-04
       CONSTANT HEAD =           0.0000         CONSTANT HEAD =           0.0000
               WELLS =       42500.0000                 WELLS =         500.0000
       RIVER LEAKAGE =      103984.1797         RIVER LEAKAGE =         333.3987

           TOTAL OUT =      146484.2188             TOTAL OUT =         833.3991

            IN - OUT =         -10.7500              IN - OUT =      -3.2593E-02

 PERCENT DISCREPANCY =          -0.01     PERCENT DISCREPANCY =          -0.00






         TIME SUMMARY AT END OF TIME STEP   85 IN STRESS PERIOD    3
                    SECONDS     MINUTES      HOURS       DAYS        YEARS
                    -----------------------------------------------------------
   TIME STEP LENGTH  86400.      1440.0      24.000      1.0000     2.73785E-03
 STRESS PERIOD TIME 7.34400E+06 1.22400E+05  2040.0      85.000     0.23272    
         TOTAL TIME 1.60704E+07 2.67840E+05  4464.0      186.00     0.50924    
1

 SOLVING FOR HEAD 

 OUTPUT CONTROL FOR STRESS PERIOD    3   TIME STEP   86
    SAVE HEAD FOR ALL LAYERS
    SAVE DRAWDOWN FOR ALL LAYERS
    SAVE BUDGET
    PRINT HEAD FOR ALL LAYERS
    PRINT BUDGET
 UBDSV1 SAVING "         STORAGE" ON UNIT  53 AT TIME STEP 86, STRESS PERIOD   3
 UBDSV2 SAVING "   CONSTANT HEAD" ON UNIT  53 AT TIME STEP 86, STRESS PERIOD   3
 UBDSV1 SAVING "FLOW RIGHT FACE " ON UNIT  53 AT TIME STEP 86, STRESS PERIOD   3
 UBDSV1 SAVING "FLOW FRONT FACE " ON UNIT  53 AT TIME STEP 86, STRESS PERIOD   3
 UBDSV1 SAVING "FLOW LOWER FACE " ON UNIT  53 AT TIME STEP 86, STRESS PERIOD   3
1
              HEAD IN LAYER   1 AT END OF TIME STEP  86 IN STRESS PERIOD    3
  ---------------------------------------------------------------------------

            1           2           3           4           5           6           7           8           9          10
 ........................................................................................................................
   1    9.996       8.410       6.872       5.438       4.170       3.105       2.208       1.423      0.6989      2.3218E-03
   2    9.995       8.362       6.769       5.273       3.966       2.937       2.098       1.360      0.6718      2.2318E-03
   3    9.995       8.274       6.567       4.919       3.483       2.578       1.885       1.250      0.6256      2.0785E-03
   4    9.995       8.173       6.304       4.354       2.458       2.009       1.612       1.127      0.5790      1.9240E-03
   5    9.995       8.120       6.121       3.717     -0.4059       1.369       1.428       1.069      0.5610      1.8645E-03
   6    9.995       8.191       6.336       4.397       2.507       2.057       1.653       1.157      0.5946      1.9759E-03
   7    9.995       8.311       6.635       5.012       3.586       2.680       1.971       1.312      0.6583      2.1870E-03
   8    9.996       8.423       6.883       5.427       4.138       3.104       2.239       1.461      0.7242      2.4059E-03
   9    9.996       8.501       7.046       5.674       4.435       3.359       2.419       1.571      0.7747      2.5734E-03
  10    9.996       8.541       7.125       5.789       4.567       3.478       2.508       1.627      0.8013      2.6620E-03
1
              HEAD IN LAYER   2 AT END OF TIME STEP  86 IN STRESS PERIOD    3
  ---------------------------------------------------------------------------

            1           2           3           4           5           6           7           8           9          10
 ........................................................................................................................
   1    9.996       8.410       6.872       5.438       4.170       3.105       2.208       1.423      0.6989      2.3218E-03
   2    9.995       8.362       6.769       5.273       3.966       2.937       2.098       1.360      0.6718      2.2318E-03
   3    9.995       8.274       6.567       4.919       3.483       2.578       1.885       1.250      0.6256      2.0785E-03
   4    9.995       8.173       6.304       4.354       2.468       2.009       1.612       1.127      0.5790      1.9240E-03
   5    9.995       8.120       6.122       3.726      0.1002       1.379       1.428       1.069      0.5610      1.8645E-03
   6    9.995       8.191       6.336       4.398       2.517       2.057       1.654       1.157      0.5946      1.9759E-03
   7    9.995       8.311       6.635       5.012       3.586       2.680       1.971       1.312      0.6583      2.1870E-03
   8    9.996       8.423       6.883       5.427       4.138       3.104       2.239       1.461      0.7242      2.4059E-03
   9    9.996       8.501       7.046       5.674       4.435       3.359       2.419       1.571      0.7747      2.5734E-03
  10    9.996       8.541       7.125       5.789       4.567       3.478       2.508       1.627      0.8013      2.6620E-03
1
              HEAD IN LAYER   3 AT END OF TIME STEP  86 IN STRESS PERIOD    3
  ---------------------------------------------------------------------------

            1           2           3           4           5           6           7           8           9          10
 ........................................................................................................................
   1    9.996       8.410       6.872       5.438       4.170       3.105       2.208       1.423      0.6989      2.3218E-03
   2    9.995       8.362       6.769       5.273       3.966       2.937       2.098       1.360      0.6718      2.2318E-03
   3    9.995       8.274       6.567       4.919       3.483       2.578       1.885       1.250      0.6256      2.0785E-03
   4    9.995       8.173       6.304       4.355       2.476       2.010       1.613       1.127      0.5790      1.9240E-03
   5    9.995       8.120       6.122       3.734      0.3432       1.388       1.429       1.069      0.5610      1.8645E-03
   6    9.995       8.191       6.336       4.398       2.525       2.058       1.654       1.157      0.5946      1.9759E-03
   7    9.995       8.311       6.635       5.012       3.587       2.680       1.971       1.312      0.6583      2.1870E-03
   8    9.996       8.423       6.883       5.427       4.138       3.104       2.239       1.461      0.7242      2.4059E-03
   9    9.996       8.501       7.046       5.674       4.435       3.359       2.419       1.570      0.7747      2.5734E-03
  10    9.996       8.541       7.125       5.789       4.567       3.478       2.508       1.627      0.8013      2.6620E-03

 HEAD WILL BE SAVED ON UNIT   51 AT END OF TIME STEP   86, STRESS PERIOD    3

 DRAWDOWN WILL BE SAVED ON UNIT   52 AT END OF TIME STEP   86, STRESS PERIOD    3
1
  VOLUMETRIC BUDGET FOR ENTIRE MODEL AT END OF TIME STEP   86, STRESS PERIOD   3
  ------------------------------------------------------------------------------

     CUMULATIVE VOLUMES      L**3       RATES FOR THIS TIME STEP      L**3/T
     ------------------                 ------------------------

           IN:                                      IN:
           ---                                      ---
             STORAGE =       30396.6855               STORAGE =           1.0011
       CONSTANT HEAD =           0.0000         CONSTANT HEAD =           0.0000
               WELLS =           0.0000                 WELLS =           0.0000
       RIVER LEAKAGE =      116910.1172         RIVER LEAKAGE =         832.3362

            TOTAL IN =      147306.7969              TOTAL IN =         833.3373

          OUT:                                     OUT:
          ----                                     ----
             STORAGE =       4.3594E-02               STORAGE =       4.2664E-04
       CONSTANT HEAD =           0.0000         CONSTANT HEAD =           0.0000
               WELLS =       43000.0000                 WELLS =         500.0000
       RIVER LEAKAGE =      104317.5469         RIVER LEAKAGE =         333.3697

           TOTAL OUT =      147317.5938             TOTAL OUT =         833.3701

            IN - OUT =         -10.7969              IN - OUT =      -3.2776E-02

 PERCENT DISCREPANCY =          -0.01     PERCENT DISCREPANCY =          -0.00






         TIME SUMMARY AT END OF TIME STEP   86 IN STRESS PERIOD    3
                    SECONDS     MINUTES      HOURS       DAYS        YEARS
                    -----------------------------------------------------------
   TIME STEP LENGTH  86400.      1440.0      24.000      1.0000     2.73785E-03
 STRESS PERIOD TIME 7.43040E+06 1.23840E+05  2064.0      86.000     0.23546    
         TOTAL TIME 1.61568E+07 2.69280E+05  4488.0      187.00     0.51198    
1

 SOLVING FOR HEAD 

 OUTPUT CONTROL FOR STRESS PERIOD    3   TIME STEP   87
    SAVE HEAD FOR ALL LAYERS
    SAVE DRAWDOWN FOR ALL LAYERS
    SAVE BUDGET
    PRINT HEAD FOR ALL LAYERS
    PRINT BUDGET
 UBDSV1 SAVING "         STORAGE" ON UNIT  53 AT TIME STEP 87, STRESS PERIOD   3
 UBDSV2 SAVING "   CONSTANT HEAD" ON UNIT  53 AT TIME STEP 87, STRESS PERIOD   3
 UBDSV1 SAVING "FLOW RIGHT FACE " ON UNIT  53 AT TIME STEP 87, STRESS PERIOD   3
 UBDSV1 SAVING "FLOW FRONT FACE " ON UNIT  53 AT TIME STEP 87, STRESS PERIOD   3
 UBDSV1 SAVING "FLOW LOWER FACE " ON UNIT  53 AT TIME STEP 87, STRESS PERIOD   3
1
              HEAD IN LAYER   1 AT END OF TIME STEP  87 IN STRESS PERIOD    3
  ---------------------------------------------------------------------------

            1           2           3           4           5           6           7           8           9          10
 ........................................................................................................................
   1    9.996       8.410       6.872       5.438       4.170       3.105       2.208       1.423      0.6989      2.3216E-03
   2    9.995       8.362       6.768       5.273       3.965       2.937       2.097       1.360      0.6718      2.2316E-03
   3    9.995       8.274       6.566       4.919       3.482       2.578       1.884       1.249      0.6256      2.0783E-03
   4    9.995       8.173       6.304       4.354       2.458       2.009       1.612       1.127      0.5790      1.9238E-03
   5    9.995       8.120       6.121       3.716     -0.4063       1.369       1.428       1.068      0.5610      1.8643E-03
   6    9.995       8.191       6.336       4.397       2.507       2.057       1.653       1.157      0.5946      1.9757E-03
   7    9.995       8.311       6.635       5.011       3.586       2.680       1.971       1.312      0.6582      2.1868E-03
   8    9.996       8.423       6.883       5.426       4.138       3.104       2.239       1.461      0.7242      2.4057E-03
   9    9.996       8.501       7.046       5.674       4.434       3.359       2.419       1.570      0.7746      2.5732E-03
  10    9.996       8.541       7.125       5.789       4.567       3.478       2.508       1.627      0.8013      2.6618E-03
1
              HEAD IN LAYER   2 AT END OF TIME STEP  87 IN STRESS PERIOD    3
  ---------------------------------------------------------------------------

            1           2           3           4           5           6           7           8           9          10
 ........................................................................................................................
   1    9.996       8.410       6.872       5.438       4.170       3.105       2.208       1.423      0.6989      2.3216E-03
   2    9.995       8.362       6.768       5.273       3.965       2.937       2.097       1.360      0.6718      2.2316E-03
   3    9.995       8.274       6.566       4.919       3.483       2.578       1.884       1.249      0.6256      2.0783E-03
   4    9.995       8.173       6.304       4.354       2.468       2.009       1.612       1.127      0.5790      1.9238E-03
   5    9.995       8.120       6.121       3.726      9.9763E-02   1.379       1.428       1.068      0.5610      1.8643E-03
   6    9.995       8.191       6.336       4.397       2.517       2.057       1.653       1.157      0.5946      1.9757E-03
   7    9.995       8.311       6.635       5.011       3.586       2.680       1.971       1.312      0.6582      2.1868E-03
   8    9.996       8.423       6.883       5.426       4.138       3.104       2.239       1.461      0.7242      2.4057E-03
   9    9.996       8.501       7.046       5.674       4.434       3.359       2.419       1.570      0.7746      2.5732E-03
  10    9.996       8.541       7.125       5.789       4.567       3.478       2.508       1.627      0.8013      2.6618E-03
1
              HEAD IN LAYER   3 AT END OF TIME STEP  87 IN STRESS PERIOD    3
  ---------------------------------------------------------------------------

            1           2           3           4           5           6           7           8           9          10
 ........................................................................................................................
   1    9.996       8.410       6.872       5.438       4.170       3.105       2.208       1.423      0.6989      2.3216E-03
   2    9.995       8.362       6.768       5.273       3.965       2.937       2.097       1.360      0.6718      2.2316E-03
   3    9.995       8.274       6.566       4.919       3.483       2.578       1.884       1.249      0.6256      2.0783E-03
   4    9.995       8.173       6.304       4.354       2.476       2.010       1.612       1.127      0.5790      1.9238E-03
   5    9.995       8.120       6.122       3.734      0.3429       1.387       1.428       1.068      0.5610      1.8643E-03
   6    9.995       8.191       6.336       4.398       2.525       2.057       1.653       1.157      0.5946      1.9757E-03
   7    9.995       8.311       6.635       5.011       3.587       2.680       1.971       1.312      0.6582      2.1868E-03
   8    9.996       8.423       6.883       5.426       4.138       3.104       2.239       1.461      0.7242      2.4057E-03
   9    9.996       8.501       7.046       5.674       4.434       3.359       2.419       1.570      0.7746      2.5732E-03
  10    9.996       8.541       7.125       5.789       4.567       3.478       2.508       1.627      0.8013      2.6618E-03

 HEAD WILL BE SAVED ON UNIT   51 AT END OF TIME STEP   87, STRESS PERIOD    3

 DRAWDOWN WILL BE SAVED ON UNIT   52 AT END OF TIME STEP   87, STRESS PERIOD    3
1
  VOLUMETRIC BUDGET FOR ENTIRE MODEL AT END OF TIME STEP   87, STRESS PERIOD   3
  ------------------------------------------------------------------------------

     CUMULATIVE VOLUMES      L**3       RATES FOR THIS TIME STEP      L**3/T
     ------------------                 ------------------------

           IN:                                      IN:
           ---                                      ---
             STORAGE =       30397.6289               STORAGE =           0.9434
       CONSTANT HEAD =           0.0000         CONSTANT HEAD =           0.0000
               WELLS =           0.0000                 WELLS =           0.0000
       RIVER LEAKAGE =      117742.4844         RIVER LEAKAGE =         832.3668

            TOTAL IN =      148140.1094              TOTAL IN =         833.3101

          OUT:                                     OUT:
          ----                                     ----
             STORAGE =       4.4016E-02               STORAGE =       4.2210E-04
       CONSTANT HEAD =           0.0000         CONSTANT HEAD =           0.0000
               WELLS =       43500.0000                 WELLS =         500.0000
       RIVER LEAKAGE =      104650.8906         RIVER LEAKAGE =         333.3424

           TOTAL OUT =      148150.9375             TOTAL OUT =         833.3429

            IN - OUT =         -10.8281              IN - OUT =      -3.2776E-02

 PERCENT DISCREPANCY =          -0.01     PERCENT DISCREPANCY =          -0.00






         TIME SUMMARY AT END OF TIME STEP   87 IN STRESS PERIOD    3
                    SECONDS     MINUTES      HOURS       DAYS        YEARS
                    -----------------------------------------------------------
   TIME STEP LENGTH  86400.      1440.0      24.000      1.0000     2.73785E-03
 STRESS PERIOD TIME 7.51680E+06 1.25280E+05  2088.0      87.000     0.23819    
         TOTAL TIME 1.62432E+07 2.70720E+05  4512.0      188.00     0.51472    
1

 SOLVING FOR HEAD 

 OUTPUT CONTROL FOR STRESS PERIOD    3   TIME STEP   88
    SAVE HEAD FOR ALL LAYERS
    SAVE DRAWDOWN FOR ALL LAYERS
    SAVE BUDGET
    PRINT HEAD FOR ALL LAYERS
    PRINT BUDGET
 UBDSV1 SAVING "         STORAGE" ON UNIT  53 AT TIME STEP 88, STRESS PERIOD   3
 UBDSV2 SAVING "   CONSTANT HEAD" ON UNIT  53 AT TIME STEP 88, STRESS PERIOD   3
 UBDSV1 SAVING "FLOW RIGHT FACE " ON UNIT  53 AT TIME STEP 88, STRESS PERIOD   3
 UBDSV1 SAVING "FLOW FRONT FACE " ON UNIT  53 AT TIME STEP 88, STRESS PERIOD   3
 UBDSV1 SAVING "FLOW LOWER FACE " ON UNIT  53 AT TIME STEP 88, STRESS PERIOD   3
1
              HEAD IN LAYER   1 AT END OF TIME STEP  88 IN STRESS PERIOD    3
  ---------------------------------------------------------------------------

            1           2           3           4           5           6           7           8           9          10
 ........................................................................................................................
   1    9.996       8.410       6.872       5.438       4.169       3.105       2.208       1.422      0.6988      2.3214E-03
   2    9.995       8.362       6.768       5.273       3.965       2.936       2.097       1.360      0.6717      2.2314E-03
   3    9.995       8.274       6.566       4.919       3.482       2.578       1.884       1.249      0.6255      2.0781E-03
   4    9.995       8.173       6.304       4.353       2.458       2.009       1.612       1.127      0.5789      1.9236E-03
   5    9.995       8.120       6.121       3.716     -0.4067       1.369       1.428       1.068      0.5609      1.8641E-03
   6    9.995       8.191       6.336       4.397       2.507       2.056       1.653       1.157      0.5945      1.9755E-03
   7    9.995       8.311       6.635       5.011       3.586       2.679       1.971       1.312      0.6582      2.1867E-03
   8    9.996       8.423       6.882       5.426       4.138       3.104       2.239       1.461      0.7241      2.4055E-03
   9    9.996       8.501       7.046       5.674       4.434       3.359       2.419       1.570      0.7746      2.5731E-03
  10    9.996       8.541       7.125       5.789       4.567       3.478       2.508       1.626      0.8013      2.6617E-03
1
              HEAD IN LAYER   2 AT END OF TIME STEP  88 IN STRESS PERIOD    3
  ---------------------------------------------------------------------------

            1           2           3           4           5           6           7           8           9          10
 ........................................................................................................................
   1    9.996       8.410       6.872       5.438       4.169       3.105       2.208       1.422      0.6988      2.3214E-03
   2    9.995       8.362       6.768       5.273       3.965       2.936       2.097       1.360      0.6717      2.2314E-03
   3    9.995       8.274       6.566       4.919       3.482       2.578       1.884       1.249      0.6255      2.0781E-03
   4    9.995       8.173       6.304       4.354       2.468       2.009       1.612       1.127      0.5789      1.9236E-03
   5    9.995       8.120       6.121       3.726      9.9387E-02   1.379       1.428       1.068      0.5609      1.8641E-03
   6    9.995       8.191       6.336       4.397       2.517       2.057       1.653       1.157      0.5945      1.9755E-03
   7    9.995       8.311       6.635       5.011       3.586       2.679       1.971       1.312      0.6582      2.1867E-03
   8    9.996       8.423       6.882       5.426       4.138       3.104       2.239       1.461      0.7241      2.4055E-03
   9    9.996       8.501       7.046       5.674       4.434       3.359       2.419       1.570      0.7746      2.5731E-03
  10    9.996       8.541       7.125       5.789       4.567       3.478       2.508       1.626      0.8013      2.6617E-03
1
              HEAD IN LAYER   3 AT END OF TIME STEP  88 IN STRESS PERIOD    3
  ---------------------------------------------------------------------------

            1           2           3           4           5           6           7           8           9          10
 ........................................................................................................................
   1    9.996       8.410       6.872       5.438       4.169       3.105       2.208       1.422      0.6988      2.3214E-03
   2    9.995       8.362       6.768       5.273       3.965       2.936       2.097       1.360      0.6717      2.2314E-03
   3    9.995       8.274       6.566       4.919       3.483       2.578       1.884       1.249      0.6255      2.0781E-03
   4    9.995       8.173       6.304       4.354       2.476       2.009       1.612       1.127      0.5789      1.9236E-03
   5    9.995       8.120       6.122       3.734      0.3425       1.387       1.428       1.068      0.5609      1.8641E-03
   6    9.995       8.191       6.336       4.398       2.525       2.057       1.653       1.157      0.5945      1.9755E-03
   7    9.995       8.311       6.635       5.011       3.586       2.679       1.971       1.312      0.6582      2.1867E-03
   8    9.996       8.423       6.882       5.426       4.138       3.104       2.239       1.461      0.7241      2.4055E-03
   9    9.996       8.501       7.046       5.674       4.434       3.359       2.419       1.570      0.7746      2.5731E-03
  10    9.996       8.541       7.125       5.789       4.567       3.478       2.508       1.626      0.8013      2.6617E-03

 HEAD WILL BE SAVED ON UNIT   51 AT END OF TIME STEP   88, STRESS PERIOD    3

 DRAWDOWN WILL BE SAVED ON UNIT   52 AT END OF TIME STEP   88, STRESS PERIOD    3
1
  VOLUMETRIC BUDGET FOR ENTIRE MODEL AT END OF TIME STEP   88, STRESS PERIOD   3
  ------------------------------------------------------------------------------

     CUMULATIVE VOLUMES      L**3       RATES FOR THIS TIME STEP      L**3/T
     ------------------                 ------------------------

           IN:                                      IN:
           ---                                      ---
             STORAGE =       30398.5176               STORAGE =           0.8887
       CONSTANT HEAD =           0.0000         CONSTANT HEAD =           0.0000
               WELLS =           0.0000                 WELLS =           0.0000
       RIVER LEAKAGE =      118574.8828         RIVER LEAKAGE =         832.3956

            TOTAL IN =      148973.4062              TOTAL IN =         833.2844

          OUT:                                     OUT:
          ----                                     ----
             STORAGE =       4.4421E-02               STORAGE =       4.0481E-04
       CONSTANT HEAD =           0.0000         CONSTANT HEAD =           0.0000
               WELLS =       44000.0000                 WELLS =         500.0000
       RIVER LEAKAGE =      104984.2109         RIVER LEAKAGE =         333.3168

           TOTAL OUT =      148984.2500             TOTAL OUT =         833.3171

            IN - OUT =         -10.8438              IN - OUT =      -3.2776E-02

 PERCENT DISCREPANCY =          -0.01     PERCENT DISCREPANCY =          -0.00






         TIME SUMMARY AT END OF TIME STEP   88 IN STRESS PERIOD    3
                    SECONDS     MINUTES      HOURS       DAYS        YEARS
                    -----------------------------------------------------------
   TIME STEP LENGTH  86400.      1440.0      24.000      1.0000     2.73785E-03
 STRESS PERIOD TIME 7.60320E+06 1.26720E+05  2112.0      88.000     0.24093    
         TOTAL TIME 1.63296E+07 2.72160E+05  4536.0      189.00     0.51745    
1

 SOLVING FOR HEAD 

 OUTPUT CONTROL FOR STRESS PERIOD    3   TIME STEP   89
    SAVE HEAD FOR ALL LAYERS
    SAVE DRAWDOWN FOR ALL LAYERS
    SAVE BUDGET
    PRINT HEAD FOR ALL LAYERS
    PRINT BUDGET
 UBDSV1 SAVING "         STORAGE" ON UNIT  53 AT TIME STEP 89, STRESS PERIOD   3
 UBDSV2 SAVING "   CONSTANT HEAD" ON UNIT  53 AT TIME STEP 89, STRESS PERIOD   3
 UBDSV1 SAVING "FLOW RIGHT FACE " ON UNIT  53 AT TIME STEP 89, STRESS PERIOD   3
 UBDSV1 SAVING "FLOW FRONT FACE " ON UNIT  53 AT TIME STEP 89, STRESS PERIOD   3
 UBDSV1 SAVING "FLOW LOWER FACE " ON UNIT  53 AT TIME STEP 89, STRESS PERIOD   3
1
              HEAD IN LAYER   1 AT END OF TIME STEP  89 IN STRESS PERIOD    3
  ---------------------------------------------------------------------------

            1           2           3           4           5           6           7           8           9          10
 ........................................................................................................................
   1    9.996       8.410       6.872       5.438       4.169       3.105       2.208       1.422      0.6988      2.3213E-03
   2    9.995       8.362       6.768       5.273       3.965       2.936       2.097       1.360      0.6717      2.2312E-03
   3    9.995       8.274       6.566       4.919       3.482       2.578       1.884       1.249      0.6255      2.0780E-03
   4    9.995       8.173       6.304       4.353       2.458       2.008       1.612       1.127      0.5788      1.9234E-03
   5    9.995       8.120       6.121       3.716     -0.4071       1.369       1.428       1.068      0.5609      1.8639E-03
   6    9.995       8.190       6.336       4.397       2.506       2.056       1.653       1.157      0.5945      1.9753E-03
   7    9.995       8.311       6.635       5.011       3.586       2.679       1.971       1.312      0.6581      2.1865E-03
   8    9.996       8.423       6.882       5.426       4.137       3.103       2.239       1.461      0.7241      2.4054E-03
   9    9.996       8.501       7.046       5.674       4.434       3.359       2.419       1.570      0.7745      2.5730E-03
  10    9.996       8.541       7.125       5.788       4.567       3.478       2.508       1.626      0.8012      2.6616E-03
1
              HEAD IN LAYER   2 AT END OF TIME STEP  89 IN STRESS PERIOD    3
  ---------------------------------------------------------------------------

            1           2           3           4           5           6           7           8           9          10
 ........................................................................................................................
   1    9.996       8.410       6.872       5.438       4.169       3.105       2.208       1.422      0.6988      2.3213E-03
   2    9.995       8.362       6.768       5.273       3.965       2.936       2.097       1.360      0.6717      2.2312E-03
   3    9.995       8.274       6.566       4.919       3.482       2.578       1.884       1.249      0.6255      2.0780E-03
   4    9.995       8.173       6.304       4.354       2.468       2.009       1.612       1.127      0.5788      1.9234E-03
   5    9.995       8.120       6.121       3.726      9.9033E-02   1.379       1.428       1.068      0.5609      1.8639E-03
   6    9.995       8.190       6.336       4.397       2.516       2.057       1.653       1.157      0.5945      1.9753E-03
   7    9.995       8.311       6.635       5.011       3.586       2.679       1.971       1.312      0.6581      2.1865E-03
   8    9.996       8.423       6.882       5.426       4.137       3.103       2.239       1.461      0.7241      2.4054E-03
   9    9.996       8.501       7.046       5.674       4.434       3.359       2.419       1.570      0.7745      2.5730E-03
  10    9.996       8.541       7.125       5.788       4.567       3.478       2.508       1.626      0.8012      2.6616E-03
1
              HEAD IN LAYER   3 AT END OF TIME STEP  89 IN STRESS PERIOD    3
  ---------------------------------------------------------------------------

            1           2           3           4           5           6           7           8           9          10
 ........................................................................................................................
   1    9.996       8.410       6.872       5.438       4.169       3.105       2.208       1.422      0.6988      2.3213E-03
   2    9.995       8.362       6.768       5.273       3.965       2.936       2.097       1.360      0.6717      2.2312E-03
   3    9.995       8.274       6.566       4.919       3.482       2.578       1.884       1.249      0.6255      2.0779E-03
   4    9.995       8.173       6.304       4.354       2.476       2.009       1.612       1.127      0.5788      1.9234E-03
   5    9.995       8.120       6.121       3.734      0.3421       1.387       1.428       1.068      0.5609      1.8639E-03
   6    9.995       8.190       6.336       4.397       2.524       2.057       1.653       1.157      0.5945      1.9753E-03
   7    9.995       8.311       6.635       5.011       3.586       2.679       1.971       1.312      0.6581      2.1865E-03
   8    9.996       8.423       6.882       5.426       4.137       3.103       2.239       1.461      0.7241      2.4054E-03
   9    9.996       8.501       7.046       5.674       4.434       3.359       2.419       1.570      0.7745      2.5730E-03
  10    9.996       8.541       7.125       5.788       4.567       3.478       2.508       1.626      0.8012      2.6616E-03

 HEAD WILL BE SAVED ON UNIT   51 AT END OF TIME STEP   89, STRESS PERIOD    3

 DRAWDOWN WILL BE SAVED ON UNIT   52 AT END OF TIME STEP   89, STRESS PERIOD    3
1
  VOLUMETRIC BUDGET FOR ENTIRE MODEL AT END OF TIME STEP   89, STRESS PERIOD   3
  ------------------------------------------------------------------------------

     CUMULATIVE VOLUMES      L**3       RATES FOR THIS TIME STEP      L**3/T
     ------------------                 ------------------------

           IN:                                      IN:
           ---                                      ---
             STORAGE =       30399.3555               STORAGE =           0.8372
       CONSTANT HEAD =           0.0000         CONSTANT HEAD =           0.0000
               WELLS =           0.0000                 WELLS =           0.0000
       RIVER LEAKAGE =      119407.3047         RIVER LEAKAGE =         832.4228

            TOTAL IN =      149806.6562              TOTAL IN =         833.2599

          OUT:                                     OUT:
          ----                                     ----
             STORAGE =       4.4828E-02               STORAGE =       4.0761E-04
       CONSTANT HEAD =           0.0000         CONSTANT HEAD =           0.0000
               WELLS =       44500.0000                 WELLS =         500.0000
       RIVER LEAKAGE =      105317.5000         RIVER LEAKAGE =         333.2926

           TOTAL OUT =      149817.5469             TOTAL OUT =         833.2930

            IN - OUT =         -10.8906              IN - OUT =      -3.3020E-02

 PERCENT DISCREPANCY =          -0.01     PERCENT DISCREPANCY =          -0.00






         TIME SUMMARY AT END OF TIME STEP   89 IN STRESS PERIOD    3
                    SECONDS     MINUTES      HOURS       DAYS        YEARS
                    -----------------------------------------------------------
   TIME STEP LENGTH  86400.      1440.0      24.000      1.0000     2.73785E-03
 STRESS PERIOD TIME 7.68960E+06 1.28160E+05  2136.0      89.000     0.24367    
         TOTAL TIME 1.64160E+07 2.73600E+05  4560.0      190.00     0.52019    
1

 SOLVING FOR HEAD 

 OUTPUT CONTROL FOR STRESS PERIOD    3   TIME STEP   90
    SAVE HEAD FOR ALL LAYERS
    SAVE DRAWDOWN FOR ALL LAYERS
    SAVE BUDGET
    PRINT HEAD FOR ALL LAYERS
    PRINT BUDGET
 UBDSV1 SAVING "         STORAGE" ON UNIT  53 AT TIME STEP 90, STRESS PERIOD   3
 UBDSV2 SAVING "   CONSTANT HEAD" ON UNIT  53 AT TIME STEP 90, STRESS PERIOD   3
 UBDSV1 SAVING "FLOW RIGHT FACE " ON UNIT  53 AT TIME STEP 90, STRESS PERIOD   3
 UBDSV1 SAVING "FLOW FRONT FACE " ON UNIT  53 AT TIME STEP 90, STRESS PERIOD   3
 UBDSV1 SAVING "FLOW LOWER FACE " ON UNIT  53 AT TIME STEP 90, STRESS PERIOD   3
1
              HEAD IN LAYER   1 AT END OF TIME STEP  90 IN STRESS PERIOD    3
  ---------------------------------------------------------------------------

            1           2           3           4           5           6           7           8           9          10
 ........................................................................................................................
   1    9.996       8.410       6.872       5.438       4.169       3.104       2.208       1.422      0.6988      2.3211E-03
   2    9.995       8.362       6.768       5.272       3.965       2.936       2.097       1.360      0.6716      2.2311E-03
   3    9.995       8.274       6.566       4.918       3.482       2.578       1.884       1.249      0.6254      2.0778E-03
   4    9.995       8.173       6.303       4.353       2.457       2.008       1.612       1.127      0.5788      1.9232E-03
   5    9.995       8.120       6.121       3.716     -0.4074       1.368       1.427       1.068      0.5608      1.8637E-03
   6    9.995       8.190       6.336       4.396       2.506       2.056       1.653       1.157      0.5944      1.9752E-03
   7    9.995       8.311       6.635       5.011       3.586       2.679       1.971       1.312      0.6581      2.1864E-03
   8    9.996       8.422       6.882       5.426       4.137       3.103       2.238       1.461      0.7240      2.4053E-03
   9    9.996       8.501       7.045       5.674       4.434       3.358       2.419       1.570      0.7745      2.5728E-03
  10    9.996       8.541       7.125       5.788       4.567       3.478       2.508       1.626      0.8012      2.6614E-03
1
              HEAD IN LAYER   2 AT END OF TIME STEP  90 IN STRESS PERIOD    3
  ---------------------------------------------------------------------------

            1           2           3           4           5           6           7           8           9          10
 ........................................................................................................................
   1    9.996       8.410       6.872       5.438       4.169       3.104       2.208       1.422      0.6988      2.3211E-03
   2    9.995       8.362       6.768       5.272       3.965       2.936       2.097       1.360      0.6716      2.2311E-03
   3    9.995       8.274       6.566       4.919       3.482       2.578       1.884       1.249      0.6254      2.0778E-03
   4    9.995       8.173       6.303       4.353       2.467       2.009       1.612       1.127      0.5788      1.9232E-03
   5    9.995       8.120       6.121       3.726      9.8700E-02   1.379       1.428       1.068      0.5608      1.8637E-03
   6    9.995       8.190       6.336       4.397       2.516       2.056       1.653       1.157      0.5944      1.9752E-03
   7    9.995       8.311       6.635       5.011       3.586       2.679       1.971       1.312      0.6581      2.1864E-03
   8    9.996       8.422       6.882       5.426       4.137       3.103       2.238       1.461      0.7240      2.4053E-03
   9    9.996       8.501       7.045       5.674       4.434       3.358       2.419       1.570      0.7745      2.5728E-03
  10    9.996       8.541       7.125       5.788       4.567       3.478       2.508       1.626      0.8012      2.6614E-03
1
              HEAD IN LAYER   3 AT END OF TIME STEP  90 IN STRESS PERIOD    3
  ---------------------------------------------------------------------------

            1           2           3           4           5           6           7           8           9          10
 ........................................................................................................................
   1    9.996       8.410       6.872       5.438       4.169       3.104       2.208       1.422      0.6988      2.3211E-03
   2    9.995       8.362       6.768       5.272       3.965       2.936       2.097       1.360      0.6716      2.2311E-03
   3    9.995       8.274       6.566       4.919       3.482       2.578       1.884       1.249      0.6254      2.0778E-03
   4    9.995       8.173       6.303       4.354       2.475       2.009       1.612       1.127      0.5788      1.9232E-03
   5    9.995       8.120       6.121       3.733      0.3418       1.387       1.428       1.068      0.5608      1.8637E-03
   6    9.995       8.190       6.336       4.397       2.524       2.057       1.653       1.157      0.5944      1.9752E-03
   7    9.995       8.311       6.635       5.011       3.586       2.679       1.971       1.312      0.6581      2.1863E-03
   8    9.996       8.422       6.882       5.426       4.137       3.103       2.238       1.461      0.7240      2.4053E-03
   9    9.996       8.501       7.045       5.674       4.434       3.358       2.419       1.570      0.7745      2.5728E-03
  10    9.996       8.541       7.125       5.788       4.567       3.478       2.508       1.626      0.8012      2.6614E-03

 HEAD WILL BE SAVED ON UNIT   51 AT END OF TIME STEP   90, STRESS PERIOD    3

 DRAWDOWN WILL BE SAVED ON UNIT   52 AT END OF TIME STEP   90, STRESS PERIOD    3
1
  VOLUMETRIC BUDGET FOR ENTIRE MODEL AT END OF TIME STEP   90, STRESS PERIOD   3
  ------------------------------------------------------------------------------

     CUMULATIVE VOLUMES      L**3       RATES FOR THIS TIME STEP      L**3/T
     ------------------                 ------------------------

           IN:                                      IN:
           ---                                      ---
             STORAGE =       30400.1445               STORAGE =           0.7886
       CONSTANT HEAD =           0.0000         CONSTANT HEAD =           0.0000
               WELLS =           0.0000                 WELLS =           0.0000
       RIVER LEAKAGE =      120239.7500         RIVER LEAKAGE =         832.4484

            TOTAL IN =      150639.8906              TOTAL IN =         833.2369

          OUT:                                     OUT:
          ----                                     ----
             STORAGE =       4.5264E-02               STORAGE =       4.3555E-04
       CONSTANT HEAD =           0.0000         CONSTANT HEAD =           0.0000
               WELLS =       45000.0000                 WELLS =         500.0000
       RIVER LEAKAGE =      105650.7734         RIVER LEAKAGE =         333.2696

           TOTAL OUT =      150650.8125             TOTAL OUT =         833.2700

            IN - OUT =         -10.9219              IN - OUT =      -3.3081E-02

 PERCENT DISCREPANCY =          -0.01     PERCENT DISCREPANCY =          -0.00






         TIME SUMMARY AT END OF TIME STEP   90 IN STRESS PERIOD    3
                    SECONDS     MINUTES      HOURS       DAYS        YEARS
                    -----------------------------------------------------------
   TIME STEP LENGTH  86400.      1440.0      24.000      1.0000     2.73785E-03
 STRESS PERIOD TIME 7.77600E+06 1.29600E+05  2160.0      90.000     0.24641    
         TOTAL TIME 1.65024E+07 2.75040E+05  4584.0      191.00     0.52293    
1

 SOLVING FOR HEAD 

 OUTPUT CONTROL FOR STRESS PERIOD    3   TIME STEP   91
    SAVE HEAD FOR ALL LAYERS
    SAVE DRAWDOWN FOR ALL LAYERS
    SAVE BUDGET
    PRINT HEAD FOR ALL LAYERS
    PRINT BUDGET
 UBDSV1 SAVING "         STORAGE" ON UNIT  53 AT TIME STEP 91, STRESS PERIOD   3
 UBDSV2 SAVING "   CONSTANT HEAD" ON UNIT  53 AT TIME STEP 91, STRESS PERIOD   3
 UBDSV1 SAVING "FLOW RIGHT FACE " ON UNIT  53 AT TIME STEP 91, STRESS PERIOD   3
 UBDSV1 SAVING "FLOW FRONT FACE " ON UNIT  53 AT TIME STEP 91, STRESS PERIOD   3
 UBDSV1 SAVING "FLOW LOWER FACE " ON UNIT  53 AT TIME STEP 91, STRESS PERIOD   3
1
              HEAD IN LAYER   1 AT END OF TIME STEP  91 IN STRESS PERIOD    3
  ---------------------------------------------------------------------------

            1           2           3           4           5           6           7           8           9          10
 ........................................................................................................................
   1    9.996       8.410       6.872       5.438       4.169       3.104       2.208       1.422      0.6987      2.3210E-03
   2    9.995       8.362       6.768       5.272       3.965       2.936       2.097       1.360      0.6716      2.2309E-03
   3    9.995       8.274       6.566       4.918       3.482       2.578       1.884       1.249      0.6254      2.0776E-03
   4    9.995       8.173       6.303       4.353       2.457       2.008       1.612       1.127      0.5787      1.9231E-03
   5    9.995       8.120       6.121       3.716     -0.4078       1.368       1.427       1.068      0.5608      1.8636E-03
   6    9.995       8.190       6.336       4.396       2.506       2.056       1.653       1.157      0.5944      1.9750E-03
   7    9.995       8.311       6.635       5.011       3.585       2.679       1.970       1.312      0.6580      2.1862E-03
   8    9.996       8.422       6.882       5.426       4.137       3.103       2.238       1.461      0.7240      2.4051E-03
   9    9.996       8.501       7.045       5.673       4.434       3.358       2.419       1.570      0.7745      2.5727E-03
  10    9.996       8.541       7.125       5.788       4.567       3.478       2.507       1.626      0.8011      2.6613E-03
1
              HEAD IN LAYER   2 AT END OF TIME STEP  91 IN STRESS PERIOD    3
  ---------------------------------------------------------------------------

            1           2           3           4           5           6           7           8           9          10
 ........................................................................................................................
   1    9.996       8.410       6.872       5.438       4.169       3.104       2.208       1.422      0.6987      2.3210E-03
   2    9.995       8.362       6.768       5.272       3.965       2.936       2.097       1.360      0.6716      2.2309E-03
   3    9.995       8.274       6.566       4.918       3.482       2.578       1.884       1.249      0.6254      2.0776E-03
   4    9.995       8.173       6.303       4.353       2.467       2.008       1.612       1.127      0.5787      1.9231E-03
   5    9.995       8.120       6.121       3.725      9.8386E-02   1.378       1.428       1.068      0.5608      1.8636E-03
   6    9.995       8.190       6.336       4.397       2.516       2.056       1.653       1.157      0.5944      1.9750E-03
   7    9.995       8.311       6.635       5.011       3.586       2.679       1.970       1.312      0.6580      2.1862E-03
   8    9.996       8.422       6.882       5.426       4.137       3.103       2.238       1.461      0.7240      2.4051E-03
   9    9.996       8.501       7.045       5.673       4.434       3.358       2.419       1.570      0.7745      2.5727E-03
  10    9.996       8.541       7.125       5.788       4.567       3.478       2.507       1.626      0.8011      2.6613E-03
1
              HEAD IN LAYER   3 AT END OF TIME STEP  91 IN STRESS PERIOD    3
  ---------------------------------------------------------------------------

            1           2           3           4           5           6           7           8           9          10
 ........................................................................................................................
   1    9.996       8.410       6.872       5.438       4.169       3.104       2.208       1.422      0.6987      2.3210E-03
   2    9.995       8.362       6.768       5.272       3.965       2.936       2.097       1.360      0.6716      2.2309E-03
   3    9.995       8.274       6.566       4.918       3.482       2.578       1.884       1.249      0.6254      2.0776E-03
   4    9.995       8.173       6.303       4.354       2.475       2.009       1.612       1.127      0.5787      1.9231E-03
   5    9.995       8.120       6.121       3.733      0.3415       1.386       1.428       1.068      0.5608      1.8636E-03
   6    9.995       8.190       6.336       4.397       2.524       2.057       1.653       1.157      0.5944      1.9750E-03
   7    9.995       8.311       6.635       5.011       3.586       2.679       1.970       1.312      0.6580      2.1862E-03
   8    9.996       8.422       6.882       5.426       4.137       3.103       2.238       1.461      0.7240      2.4051E-03
   9    9.996       8.501       7.045       5.673       4.434       3.358       2.419       1.570      0.7745      2.5727E-03
  10    9.996       8.541       7.125       5.788       4.567       3.478       2.507       1.626      0.8011      2.6613E-03

 HEAD WILL BE SAVED ON UNIT   51 AT END OF TIME STEP   91, STRESS PERIOD    3

 DRAWDOWN WILL BE SAVED ON UNIT   52 AT END OF TIME STEP   91, STRESS PERIOD    3
1
  VOLUMETRIC BUDGET FOR ENTIRE MODEL AT END OF TIME STEP   91, STRESS PERIOD   3
  ------------------------------------------------------------------------------

     CUMULATIVE VOLUMES      L**3       RATES FOR THIS TIME STEP      L**3/T
     ------------------                 ------------------------

           IN:                                      IN:
           ---                                      ---
             STORAGE =       30400.8867               STORAGE =           0.7429
       CONSTANT HEAD =           0.0000         CONSTANT HEAD =           0.0000
               WELLS =           0.0000                 WELLS =           0.0000
       RIVER LEAKAGE =      121072.2188         RIVER LEAKAGE =         832.4725

            TOTAL IN =      151473.1094              TOTAL IN =         833.2153

          OUT:                                     OUT:
          ----                                     ----
             STORAGE =       4.5714E-02               STORAGE =       4.4971E-04
       CONSTANT HEAD =           0.0000         CONSTANT HEAD =           0.0000
               WELLS =       45500.0000                 WELLS =         500.0000
       RIVER LEAKAGE =      105984.0234         RIVER LEAKAGE =         333.2481

           TOTAL OUT =      151484.0625             TOTAL OUT =         833.2486

            IN - OUT =         -10.9531              IN - OUT =      -3.3264E-02

 PERCENT DISCREPANCY =          -0.01     PERCENT DISCREPANCY =          -0.00






         TIME SUMMARY AT END OF TIME STEP   91 IN STRESS PERIOD    3
                    SECONDS     MINUTES      HOURS       DAYS        YEARS
                    -----------------------------------------------------------
   TIME STEP LENGTH  86400.      1440.0      24.000      1.0000     2.73785E-03
 STRESS PERIOD TIME 7.86240E+06 1.31040E+05  2184.0      91.000     0.24914    
         TOTAL TIME 1.65888E+07 2.76480E+05  4608.0      192.00     0.52567    
1

 SOLVING FOR HEAD 

 OUTPUT CONTROL FOR STRESS PERIOD    3   TIME STEP   92
    SAVE HEAD FOR ALL LAYERS
    SAVE DRAWDOWN FOR ALL LAYERS
    SAVE BUDGET
    PRINT HEAD FOR ALL LAYERS
    PRINT BUDGET
 UBDSV1 SAVING "         STORAGE" ON UNIT  53 AT TIME STEP 92, STRESS PERIOD   3
 UBDSV2 SAVING "   CONSTANT HEAD" ON UNIT  53 AT TIME STEP 92, STRESS PERIOD   3
 UBDSV1 SAVING "FLOW RIGHT FACE " ON UNIT  53 AT TIME STEP 92, STRESS PERIOD   3
 UBDSV1 SAVING "FLOW FRONT FACE " ON UNIT  53 AT TIME STEP 92, STRESS PERIOD   3
 UBDSV1 SAVING "FLOW LOWER FACE " ON UNIT  53 AT TIME STEP 92, STRESS PERIOD   3
1
              HEAD IN LAYER   1 AT END OF TIME STEP  92 IN STRESS PERIOD    3
  ---------------------------------------------------------------------------

            1           2           3           4           5           6           7           8           9          10
 ........................................................................................................................
   1    9.996       8.410       6.872       5.438       4.169       3.104       2.208       1.422      0.6987      2.3209E-03
   2    9.995       8.362       6.768       5.272       3.965       2.936       2.097       1.360      0.6715      2.2308E-03
   3    9.995       8.274       6.566       4.918       3.481       2.577       1.884       1.249      0.6253      2.0775E-03
   4    9.995       8.173       6.303       4.353       2.457       2.008       1.612       1.127      0.5787      1.9229E-03
   5    9.995       8.120       6.121       3.715     -0.4081       1.368       1.427       1.068      0.5607      1.8634E-03
   6    9.995       8.190       6.336       4.396       2.506       2.056       1.653       1.157      0.5943      1.9749E-03
   7    9.995       8.311       6.635       5.011       3.585       2.679       1.970       1.311      0.6580      2.1861E-03
   8    9.996       8.422       6.882       5.426       4.137       3.103       2.238       1.461      0.7240      2.4050E-03
   9    9.996       8.501       7.045       5.673       4.434       3.358       2.419       1.570      0.7744      2.5726E-03
  10    9.996       8.541       7.125       5.788       4.567       3.477       2.507       1.626      0.8011      2.6612E-03
1
              HEAD IN LAYER   2 AT END OF TIME STEP  92 IN STRESS PERIOD    3
  ---------------------------------------------------------------------------

            1           2           3           4           5           6           7           8           9          10
 ........................................................................................................................
   1    9.996       8.410       6.872       5.438       4.169       3.104       2.208       1.422      0.6987      2.3209E-03
   2    9.995       8.362       6.768       5.272       3.965       2.936       2.097       1.360      0.6715      2.2308E-03
   3    9.995       8.274       6.566       4.918       3.482       2.577       1.884       1.249      0.6253      2.0775E-03
   4    9.995       8.173       6.303       4.353       2.467       2.008       1.612       1.127      0.5787      1.9229E-03
   5    9.995       8.120       6.121       3.725      9.8090E-02   1.378       1.427       1.068      0.5607      1.8634E-03
   6    9.995       8.190       6.336       4.397       2.516       2.056       1.653       1.157      0.5943      1.9749E-03
   7    9.995       8.311       6.635       5.011       3.585       2.679       1.970       1.311      0.6580      2.1861E-03
   8    9.996       8.422       6.882       5.426       4.137       3.103       2.238       1.461      0.7240      2.4050E-03
   9    9.996       8.501       7.045       5.673       4.434       3.358       2.419       1.570      0.7744      2.5726E-03
  10    9.996       8.541       7.125       5.788       4.567       3.477       2.507       1.626      0.8011      2.6612E-03
1
              HEAD IN LAYER   3 AT END OF TIME STEP  92 IN STRESS PERIOD    3
  ---------------------------------------------------------------------------

            1           2           3           4           5           6           7           8           9          10
 ........................................................................................................................
   1    9.996       8.410       6.872       5.438       4.169       3.104       2.208       1.422      0.6987      2.3209E-03
   2    9.995       8.362       6.768       5.272       3.965       2.936       2.097       1.360      0.6715      2.2308E-03
   3    9.995       8.274       6.566       4.918       3.482       2.577       1.884       1.249      0.6253      2.0775E-03
   4    9.995       8.173       6.303       4.354       2.475       2.009       1.612       1.127      0.5787      1.9229E-03
   5    9.995       8.120       6.121       3.733      0.3412       1.386       1.428       1.068      0.5607      1.8634E-03
   6    9.995       8.190       6.336       4.397       2.524       2.056       1.653       1.157      0.5943      1.9749E-03
   7    9.995       8.311       6.635       5.011       3.586       2.679       1.970       1.311      0.6580      2.1861E-03
   8    9.996       8.422       6.882       5.426       4.137       3.103       2.238       1.461      0.7240      2.4050E-03
   9    9.996       8.501       7.045       5.673       4.434       3.358       2.419       1.570      0.7744      2.5726E-03
  10    9.996       8.541       7.125       5.788       4.567       3.477       2.507       1.626      0.8011      2.6612E-03

 HEAD WILL BE SAVED ON UNIT   51 AT END OF TIME STEP   92, STRESS PERIOD    3

 DRAWDOWN WILL BE SAVED ON UNIT   52 AT END OF TIME STEP   92, STRESS PERIOD    3
1
  VOLUMETRIC BUDGET FOR ENTIRE MODEL AT END OF TIME STEP   92, STRESS PERIOD   3
  ------------------------------------------------------------------------------

     CUMULATIVE VOLUMES      L**3       RATES FOR THIS TIME STEP      L**3/T
     ------------------                 ------------------------

           IN:                                      IN:
           ---                                      ---
             STORAGE =       30401.5859               STORAGE =           0.7000
       CONSTANT HEAD =           0.0000         CONSTANT HEAD =           0.0000
               WELLS =           0.0000                 WELLS =           0.0000
       RIVER LEAKAGE =      121904.7109         RIVER LEAKAGE =         832.4951

            TOTAL IN =      152306.2969              TOTAL IN =         833.1951

          OUT:                                     OUT:
          ----                                     ----
             STORAGE =       4.6174E-02               STORAGE =       4.5993E-04
       CONSTANT HEAD =           0.0000         CONSTANT HEAD =           0.0000
               WELLS =       46000.0000                 WELLS =         500.0000
       RIVER LEAKAGE =      106317.2500         RIVER LEAKAGE =         333.2278

           TOTAL OUT =      152317.2969             TOTAL OUT =         833.2283

            IN - OUT =         -11.0000              IN - OUT =      -3.3203E-02

 PERCENT DISCREPANCY =          -0.01     PERCENT DISCREPANCY =          -0.00






         TIME SUMMARY AT END OF TIME STEP   92 IN STRESS PERIOD    3
                    SECONDS     MINUTES      HOURS       DAYS        YEARS
                    -----------------------------------------------------------
   TIME STEP LENGTH  86400.      1440.0      24.000      1.0000     2.73785E-03
 STRESS PERIOD TIME 7.94880E+06 1.32480E+05  2208.0      92.000     0.25188    
         TOTAL TIME 1.66752E+07 2.77920E+05  4632.0      193.00     0.52841    
1

 SOLVING FOR HEAD 

 OUTPUT CONTROL FOR STRESS PERIOD    3   TIME STEP   93
    SAVE HEAD FOR ALL LAYERS
    SAVE DRAWDOWN FOR ALL LAYERS
    SAVE BUDGET
    PRINT HEAD FOR ALL LAYERS
    PRINT BUDGET
 UBDSV1 SAVING "         STORAGE" ON UNIT  53 AT TIME STEP 93, STRESS PERIOD   3
 UBDSV2 SAVING "   CONSTANT HEAD" ON UNIT  53 AT TIME STEP 93, STRESS PERIOD   3
 UBDSV1 SAVING "FLOW RIGHT FACE " ON UNIT  53 AT TIME STEP 93, STRESS PERIOD   3
 UBDSV1 SAVING "FLOW FRONT FACE " ON UNIT  53 AT TIME STEP 93, STRESS PERIOD   3
 UBDSV1 SAVING "FLOW LOWER FACE " ON UNIT  53 AT TIME STEP 93, STRESS PERIOD   3
1
              HEAD IN LAYER   1 AT END OF TIME STEP  93 IN STRESS PERIOD    3
  ---------------------------------------------------------------------------

            1           2           3           4           5           6           7           8           9          10
 ........................................................................................................................
   1    9.996       8.410       6.872       5.438       4.169       3.104       2.208       1.422      0.6986      2.3207E-03
   2    9.995       8.362       6.768       5.272       3.965       2.936       2.097       1.360      0.6715      2.2307E-03
   3    9.995       8.274       6.566       4.918       3.481       2.577       1.884       1.249      0.6253      2.0774E-03
   4    9.995       8.173       6.303       4.353       2.457       2.008       1.611       1.127      0.5787      1.9228E-03
   5    9.995       8.120       6.120       3.715     -0.4084       1.368       1.427       1.068      0.5607      1.8633E-03
   6    9.995       8.190       6.336       4.396       2.506       2.055       1.652       1.157      0.5943      1.9747E-03
   7    9.995       8.311       6.635       5.011       3.585       2.679       1.970       1.311      0.6580      2.1859E-03
   8    9.996       8.422       6.882       5.426       4.137       3.103       2.238       1.461      0.7239      2.4049E-03
   9    9.996       8.501       7.045       5.673       4.434       3.358       2.418       1.570      0.7744      2.5725E-03
  10    9.996       8.541       7.125       5.788       4.566       3.477       2.507       1.626      0.8011      2.6611E-03
1
              HEAD IN LAYER   2 AT END OF TIME STEP  93 IN STRESS PERIOD    3
  ---------------------------------------------------------------------------

            1           2           3           4           5           6           7           8           9          10
 ........................................................................................................................
   1    9.996       8.410       6.872       5.438       4.169       3.104       2.208       1.422      0.6986      2.3207E-03
   2    9.995       8.362       6.768       5.272       3.965       2.936       2.097       1.360      0.6715      2.2307E-03
   3    9.995       8.274       6.566       4.918       3.482       2.577       1.884       1.249      0.6253      2.0774E-03
   4    9.995       8.173       6.303       4.353       2.467       2.008       1.611       1.127      0.5787      1.9228E-03
   5    9.995       8.120       6.121       3.725      9.7811E-02   1.378       1.427       1.068      0.5607      1.8633E-03
   6    9.995       8.190       6.336       4.396       2.516       2.056       1.653       1.157      0.5943      1.9747E-03
   7    9.995       8.311       6.635       5.011       3.585       2.679       1.970       1.311      0.6580      2.1859E-03
   8    9.996       8.422       6.882       5.426       4.137       3.103       2.238       1.461      0.7239      2.4049E-03
   9    9.996       8.501       7.045       5.673       4.434       3.358       2.418       1.570      0.7744      2.5725E-03
  10    9.996       8.541       7.125       5.788       4.566       3.477       2.507       1.626      0.8011      2.6611E-03
1
              HEAD IN LAYER   3 AT END OF TIME STEP  93 IN STRESS PERIOD    3
  ---------------------------------------------------------------------------

            1           2           3           4           5           6           7           8           9          10
 ........................................................................................................................
   1    9.996       8.410       6.872       5.438       4.169       3.104       2.208       1.422      0.6986      2.3207E-03
   2    9.995       8.362       6.768       5.272       3.965       2.936       2.097       1.360      0.6715      2.2307E-03
   3    9.995       8.274       6.566       4.918       3.482       2.577       1.884       1.249      0.6253      2.0774E-03
   4    9.995       8.173       6.303       4.353       2.475       2.009       1.611       1.127      0.5787      1.9228E-03
   5    9.995       8.120       6.121       3.733      0.3410       1.386       1.428       1.068      0.5607      1.8633E-03
   6    9.995       8.190       6.336       4.397       2.524       2.056       1.653       1.157      0.5943      1.9747E-03
   7    9.995       8.311       6.635       5.011       3.586       2.679       1.970       1.311      0.6580      2.1859E-03
   8    9.996       8.422       6.882       5.426       4.137       3.103       2.238       1.461      0.7239      2.4049E-03
   9    9.996       8.501       7.045       5.673       4.434       3.358       2.418       1.570      0.7744      2.5725E-03
  10    9.996       8.541       7.125       5.788       4.566       3.477       2.507       1.626      0.8011      2.6611E-03

 HEAD WILL BE SAVED ON UNIT   51 AT END OF TIME STEP   93, STRESS PERIOD    3

 DRAWDOWN WILL BE SAVED ON UNIT   52 AT END OF TIME STEP   93, STRESS PERIOD    3
1
  VOLUMETRIC BUDGET FOR ENTIRE MODEL AT END OF TIME STEP   93, STRESS PERIOD   3
  ------------------------------------------------------------------------------

     CUMULATIVE VOLUMES      L**3       RATES FOR THIS TIME STEP      L**3/T
     ------------------                 ------------------------

           IN:                                      IN:
           ---                                      ---
             STORAGE =       30402.2461               STORAGE =           0.6596
       CONSTANT HEAD =           0.0000         CONSTANT HEAD =           0.0000
               WELLS =           0.0000                 WELLS =           0.0000
       RIVER LEAKAGE =      122737.2266         RIVER LEAKAGE =         832.5165

            TOTAL IN =      153139.4688              TOTAL IN =         833.1761

          OUT:                                     OUT:
          ----                                     ----
             STORAGE =       4.6663E-02               STORAGE =       4.8898E-04
       CONSTANT HEAD =           0.0000         CONSTANT HEAD =           0.0000
               WELLS =       46500.0000                 WELLS =         500.0000
       RIVER LEAKAGE =      106650.4609         RIVER LEAKAGE =         333.2087

           TOTAL OUT =      153150.5000             TOTAL OUT =         833.2092

            IN - OUT =         -11.0312              IN - OUT =      -3.3081E-02

 PERCENT DISCREPANCY =          -0.01     PERCENT DISCREPANCY =          -0.00






         TIME SUMMARY AT END OF TIME STEP   93 IN STRESS PERIOD    3
                    SECONDS     MINUTES      HOURS       DAYS        YEARS
                    -----------------------------------------------------------
   TIME STEP LENGTH  86400.      1440.0      24.000      1.0000     2.73785E-03
 STRESS PERIOD TIME 8.03520E+06 1.33920E+05  2232.0      93.000     0.25462    
         TOTAL TIME 1.67616E+07 2.79360E+05  4656.0      194.00     0.53114    
1

 SOLVING FOR HEAD 

 OUTPUT CONTROL FOR STRESS PERIOD    3   TIME STEP   94
    SAVE HEAD FOR ALL LAYERS
    SAVE DRAWDOWN FOR ALL LAYERS
    SAVE BUDGET
    PRINT HEAD FOR ALL LAYERS
    PRINT BUDGET
 UBDSV1 SAVING "         STORAGE" ON UNIT  53 AT TIME STEP 94, STRESS PERIOD   3
 UBDSV2 SAVING "   CONSTANT HEAD" ON UNIT  53 AT TIME STEP 94, STRESS PERIOD   3
 UBDSV1 SAVING "FLOW RIGHT FACE " ON UNIT  53 AT TIME STEP 94, STRESS PERIOD   3
 UBDSV1 SAVING "FLOW FRONT FACE " ON UNIT  53 AT TIME STEP 94, STRESS PERIOD   3
 UBDSV1 SAVING "FLOW LOWER FACE " ON UNIT  53 AT TIME STEP 94, STRESS PERIOD   3
1
              HEAD IN LAYER   1 AT END OF TIME STEP  94 IN STRESS PERIOD    3
  ---------------------------------------------------------------------------

            1           2           3           4           5           6           7           8           9          10
 ........................................................................................................................
   1    9.996       8.410       6.872       5.437       4.169       3.104       2.208       1.422      0.6986      2.3206E-03
   2    9.995       8.362       6.768       5.272       3.964       2.936       2.097       1.360      0.6715      2.2305E-03
   3    9.995       8.274       6.566       4.918       3.481       2.577       1.883       1.249      0.6252      2.0772E-03
   4    9.995       8.173       6.303       4.352       2.457       2.007       1.611       1.127      0.5786      1.9226E-03
   5    9.995       8.120       6.120       3.715     -0.4086       1.368       1.427       1.068      0.5606      1.8631E-03
   6    9.995       8.190       6.335       4.396       2.506       2.055       1.652       1.156      0.5943      1.9746E-03
   7    9.995       8.311       6.635       5.010       3.585       2.678       1.970       1.311      0.6579      2.1858E-03
   8    9.996       8.422       6.882       5.426       4.137       3.103       2.238       1.461      0.7239      2.4048E-03
   9    9.996       8.501       7.045       5.673       4.434       3.358       2.418       1.570      0.7744      2.5724E-03
  10    9.996       8.541       7.125       5.788       4.566       3.477       2.507       1.626      0.8010      2.6610E-03
1
              HEAD IN LAYER   2 AT END OF TIME STEP  94 IN STRESS PERIOD    3
  ---------------------------------------------------------------------------

            1           2           3           4           5           6           7           8           9          10
 ........................................................................................................................
   1    9.996       8.410       6.872       5.437       4.169       3.104       2.208       1.422      0.6986      2.3206E-03
   2    9.995       8.362       6.768       5.272       3.964       2.936       2.097       1.360      0.6715      2.2306E-03
   3    9.995       8.274       6.566       4.918       3.481       2.577       1.883       1.249      0.6252      2.0772E-03
   4    9.995       8.173       6.303       4.353       2.467       2.008       1.611       1.127      0.5786      1.9226E-03
   5    9.995       8.120       6.121       3.725      9.7548E-02   1.378       1.427       1.068      0.5606      1.8631E-03
   6    9.995       8.190       6.335       4.396       2.515       2.056       1.652       1.156      0.5943      1.9746E-03
   7    9.995       8.311       6.635       5.010       3.585       2.679       1.970       1.311      0.6579      2.1858E-03
   8    9.996       8.422       6.882       5.426       4.137       3.103       2.238       1.461      0.7239      2.4048E-03
   9    9.996       8.501       7.045       5.673       4.434       3.358       2.418       1.570      0.7744      2.5724E-03
  10    9.996       8.541       7.125       5.788       4.566       3.477       2.507       1.626      0.8010      2.6610E-03
1
              HEAD IN LAYER   3 AT END OF TIME STEP  94 IN STRESS PERIOD    3
  ---------------------------------------------------------------------------

            1           2           3           4           5           6           7           8           9          10
 ........................................................................................................................
   1    9.996       8.410       6.872       5.437       4.169       3.104       2.208       1.422      0.6986      2.3206E-03
   2    9.995       8.362       6.768       5.272       3.964       2.936       2.097       1.360      0.6715      2.2305E-03
   3    9.995       8.274       6.566       4.918       3.482       2.577       1.883       1.249      0.6252      2.0772E-03
   4    9.995       8.173       6.303       4.353       2.475       2.008       1.611       1.127      0.5786      1.9226E-03
   5    9.995       8.120       6.121       3.733      0.3407       1.386       1.427       1.068      0.5606      1.8631E-03
   6    9.995       8.190       6.335       4.397       2.523       2.056       1.652       1.156      0.5943      1.9746E-03
   7    9.995       8.311       6.635       5.010       3.585       2.679       1.970       1.311      0.6579      2.1858E-03
   8    9.996       8.422       6.882       5.426       4.137       3.103       2.238       1.461      0.7239      2.4048E-03
   9    9.996       8.501       7.045       5.673       4.434       3.358       2.418       1.570      0.7744      2.5724E-03
  10    9.996       8.541       7.125       5.788       4.566       3.477       2.507       1.626      0.8010      2.6610E-03

 HEAD WILL BE SAVED ON UNIT   51 AT END OF TIME STEP   94, STRESS PERIOD    3

 DRAWDOWN WILL BE SAVED ON UNIT   52 AT END OF TIME STEP   94, STRESS PERIOD    3
1
  VOLUMETRIC BUDGET FOR ENTIRE MODEL AT END OF TIME STEP   94, STRESS PERIOD   3
  ------------------------------------------------------------------------------

     CUMULATIVE VOLUMES      L**3       RATES FOR THIS TIME STEP      L**3/T
     ------------------                 ------------------------

           IN:                                      IN:
           ---                                      ---
             STORAGE =       30402.8672               STORAGE =           0.6213
       CONSTANT HEAD =           0.0000         CONSTANT HEAD =           0.0000
               WELLS =           0.0000                 WELLS =           0.0000
       RIVER LEAKAGE =      123569.7656         RIVER LEAKAGE =         832.5367

            TOTAL IN =      153972.6250              TOTAL IN =         833.1580

          OUT:                                     OUT:
          ----                                     ----
             STORAGE =       4.7207E-02               STORAGE =       5.4470E-04
       CONSTANT HEAD =           0.0000         CONSTANT HEAD =           0.0000
               WELLS =       47000.0000                 WELLS =         500.0000
       RIVER LEAKAGE =      106983.6484         RIVER LEAKAGE =         333.1907

           TOTAL OUT =      153983.6875             TOTAL OUT =         833.1913

            IN - OUT =         -11.0625              IN - OUT =      -3.3264E-02

 PERCENT DISCREPANCY =          -0.01     PERCENT DISCREPANCY =          -0.00






         TIME SUMMARY AT END OF TIME STEP   94 IN STRESS PERIOD    3
                    SECONDS     MINUTES      HOURS       DAYS        YEARS
                    -----------------------------------------------------------
   TIME STEP LENGTH  86400.      1440.0      24.000      1.0000     2.73785E-03
 STRESS PERIOD TIME 8.12160E+06 1.35360E+05  2256.0      94.000     0.25736    
         TOTAL TIME 1.68480E+07 2.80800E+05  4680.0      195.00     0.53388    
1

 SOLVING FOR HEAD 

 OUTPUT CONTROL FOR STRESS PERIOD    3   TIME STEP   95
    SAVE HEAD FOR ALL LAYERS
    SAVE DRAWDOWN FOR ALL LAYERS
    SAVE BUDGET
    PRINT HEAD FOR ALL LAYERS
    PRINT BUDGET
 UBDSV1 SAVING "         STORAGE" ON UNIT  53 AT TIME STEP 95, STRESS PERIOD   3
 UBDSV2 SAVING "   CONSTANT HEAD" ON UNIT  53 AT TIME STEP 95, STRESS PERIOD   3
 UBDSV1 SAVING "FLOW RIGHT FACE " ON UNIT  53 AT TIME STEP 95, STRESS PERIOD   3
 UBDSV1 SAVING "FLOW FRONT FACE " ON UNIT  53 AT TIME STEP 95, STRESS PERIOD   3
 UBDSV1 SAVING "FLOW LOWER FACE " ON UNIT  53 AT TIME STEP 95, STRESS PERIOD   3
1
              HEAD IN LAYER   1 AT END OF TIME STEP  95 IN STRESS PERIOD    3
  ---------------------------------------------------------------------------

            1           2           3           4           5           6           7           8           9          10
 ........................................................................................................................
   1    9.996       8.410       6.872       5.437       4.169       3.104       2.207       1.422      0.6986      2.3205E-03
   2    9.995       8.362       6.768       5.272       3.964       2.935       2.097       1.360      0.6714      2.2304E-03
   3    9.995       8.274       6.566       4.918       3.481       2.577       1.883       1.249      0.6252      2.0771E-03
   4    9.995       8.173       6.303       4.352       2.457       2.007       1.611       1.127      0.5786      1.9225E-03
   5    9.995       8.120       6.120       3.715     -0.4089       1.367       1.427       1.068      0.5606      1.8630E-03
   6    9.995       8.190       6.335       4.396       2.505       2.055       1.652       1.156      0.5942      1.9745E-03
   7    9.995       8.311       6.635       5.010       3.585       2.678       1.970       1.311      0.6579      2.1857E-03
   8    9.996       8.422       6.882       5.426       4.137       3.103       2.238       1.461      0.7239      2.4047E-03
   9    9.996       8.501       7.045       5.673       4.434       3.358       2.418       1.570      0.7743      2.5723E-03
  10    9.996       8.540       7.125       5.788       4.566       3.477       2.507       1.626      0.8010      2.6609E-03
1
              HEAD IN LAYER   2 AT END OF TIME STEP  95 IN STRESS PERIOD    3
  ---------------------------------------------------------------------------

            1           2           3           4           5           6           7           8           9          10
 ........................................................................................................................
   1    9.996       8.410       6.872       5.437       4.169       3.104       2.207       1.422      0.6986      2.3205E-03
   2    9.995       8.362       6.768       5.272       3.964       2.935       2.097       1.360      0.6714      2.2304E-03
   3    9.995       8.274       6.566       4.918       3.481       2.577       1.883       1.249      0.6252      2.0771E-03
   4    9.995       8.173       6.303       4.353       2.467       2.008       1.611       1.127      0.5786      1.9225E-03
   5    9.995       8.120       6.121       3.725      9.7300E-02   1.378       1.427       1.068      0.5606      1.8630E-03
   6    9.995       8.190       6.335       4.396       2.515       2.056       1.652       1.156      0.5942      1.9745E-03
   7    9.995       8.311       6.635       5.010       3.585       2.678       1.970       1.311      0.6579      2.1857E-03
   8    9.996       8.422       6.882       5.426       4.137       3.103       2.238       1.461      0.7239      2.4047E-03
   9    9.996       8.501       7.045       5.673       4.434       3.358       2.418       1.570      0.7743      2.5723E-03
  10    9.996       8.540       7.125       5.788       4.566       3.477       2.507       1.626      0.8010      2.6609E-03
1
              HEAD IN LAYER   3 AT END OF TIME STEP  95 IN STRESS PERIOD    3
  ---------------------------------------------------------------------------

            1           2           3           4           5           6           7           8           9          10
 ........................................................................................................................
   1    9.996       8.410       6.872       5.437       4.169       3.104       2.207       1.422      0.6986      2.3205E-03
   2    9.995       8.362       6.768       5.272       3.964       2.935       2.097       1.360      0.6714      2.2304E-03
   3    9.995       8.274       6.566       4.918       3.482       2.577       1.883       1.249      0.6252      2.0771E-03
   4    9.995       8.173       6.303       4.353       2.474       2.008       1.611       1.127      0.5786      1.9225E-03
   5    9.995       8.120       6.121       3.732      0.3405       1.386       1.427       1.068      0.5606      1.8630E-03
   6    9.995       8.190       6.335       4.397       2.523       2.056       1.652       1.156      0.5942      1.9745E-03
   7    9.995       8.311       6.635       5.010       3.585       2.678       1.970       1.311      0.6579      2.1857E-03
   8    9.996       8.422       6.882       5.426       4.137       3.103       2.238       1.461      0.7239      2.4047E-03
   9    9.996       8.501       7.045       5.673       4.434       3.358       2.418       1.570      0.7743      2.5723E-03
  10    9.996       8.540       7.125       5.788       4.566       3.477       2.507       1.626      0.8010      2.6609E-03

 HEAD WILL BE SAVED ON UNIT   51 AT END OF TIME STEP   95, STRESS PERIOD    3

 DRAWDOWN WILL BE SAVED ON UNIT   52 AT END OF TIME STEP   95, STRESS PERIOD    3
1
  VOLUMETRIC BUDGET FOR ENTIRE MODEL AT END OF TIME STEP   95, STRESS PERIOD   3
  ------------------------------------------------------------------------------

     CUMULATIVE VOLUMES      L**3       RATES FOR THIS TIME STEP      L**3/T
     ------------------                 ------------------------

           IN:                                      IN:
           ---                                      ---
             STORAGE =       30403.4531               STORAGE =           0.5852
       CONSTANT HEAD =           0.0000         CONSTANT HEAD =           0.0000
               WELLS =           0.0000                 WELLS =           0.0000
       RIVER LEAKAGE =      124402.3203         RIVER LEAKAGE =         832.5557

            TOTAL IN =      154805.7812              TOTAL IN =         833.1409

          OUT:                                     OUT:
          ----                                     ----
             STORAGE =       4.7755E-02               STORAGE =       5.4717E-04
       CONSTANT HEAD =           0.0000         CONSTANT HEAD =           0.0000
               WELLS =       47500.0000                 WELLS =         500.0000
       RIVER LEAKAGE =      107316.8203         RIVER LEAKAGE =         333.1738

           TOTAL OUT =      154816.8750             TOTAL OUT =         833.1743

            IN - OUT =         -11.0938              IN - OUT =      -3.3386E-02

 PERCENT DISCREPANCY =          -0.01     PERCENT DISCREPANCY =          -0.00






         TIME SUMMARY AT END OF TIME STEP   95 IN STRESS PERIOD    3
                    SECONDS     MINUTES      HOURS       DAYS        YEARS
                    -----------------------------------------------------------
   TIME STEP LENGTH  86400.      1440.0      24.000      1.0000     2.73785E-03
 STRESS PERIOD TIME 8.20800E+06 1.36800E+05  2280.0      95.000     0.26010    
         TOTAL TIME 1.69344E+07 2.82240E+05  4704.0      196.00     0.53662    
1

 SOLVING FOR HEAD 

 OUTPUT CONTROL FOR STRESS PERIOD    3   TIME STEP   96
    SAVE HEAD FOR ALL LAYERS
    SAVE DRAWDOWN FOR ALL LAYERS
    SAVE BUDGET
    PRINT HEAD FOR ALL LAYERS
    PRINT BUDGET
 UBDSV1 SAVING "         STORAGE" ON UNIT  53 AT TIME STEP 96, STRESS PERIOD   3
 UBDSV2 SAVING "   CONSTANT HEAD" ON UNIT  53 AT TIME STEP 96, STRESS PERIOD   3
 UBDSV1 SAVING "FLOW RIGHT FACE " ON UNIT  53 AT TIME STEP 96, STRESS PERIOD   3
 UBDSV1 SAVING "FLOW FRONT FACE " ON UNIT  53 AT TIME STEP 96, STRESS PERIOD   3
 UBDSV1 SAVING "FLOW LOWER FACE " ON UNIT  53 AT TIME STEP 96, STRESS PERIOD   3
1
              HEAD IN LAYER   1 AT END OF TIME STEP  96 IN STRESS PERIOD    3
  ---------------------------------------------------------------------------

            1           2           3           4           5           6           7           8           9          10
 ........................................................................................................................
   1    9.996       8.410       6.872       5.437       4.168       3.104       2.207       1.422      0.6985      2.3204E-03
   2    9.995       8.362       6.768       5.272       3.964       2.935       2.096       1.360      0.6714      2.2303E-03
   3    9.995       8.274       6.566       4.918       3.481       2.577       1.883       1.249      0.6252      2.0770E-03
   4    9.995       8.173       6.303       4.352       2.456       2.007       1.611       1.126      0.5785      1.9224E-03
   5    9.995       8.120       6.120       3.715     -0.4091       1.367       1.427       1.068      0.5606      1.8629E-03
   6    9.995       8.190       6.335       4.396       2.505       2.055       1.652       1.156      0.5942      1.9744E-03
   7    9.995       8.311       6.634       5.010       3.585       2.678       1.970       1.311      0.6579      2.1856E-03
   8    9.996       8.422       6.882       5.425       4.137       3.103       2.238       1.461      0.7238      2.4046E-03
   9    9.996       8.501       7.045       5.673       4.433       3.358       2.418       1.570      0.7743      2.5722E-03
  10    9.996       8.540       7.124       5.788       4.566       3.477       2.507       1.626      0.8010      2.6608E-03
1
              HEAD IN LAYER   2 AT END OF TIME STEP  96 IN STRESS PERIOD    3
  ---------------------------------------------------------------------------

            1           2           3           4           5           6           7           8           9          10
 ........................................................................................................................
   1    9.996       8.410       6.872       5.437       4.168       3.104       2.207       1.422      0.6985      2.3204E-03
   2    9.995       8.362       6.768       5.272       3.964       2.935       2.096       1.360      0.6714      2.2303E-03
   3    9.995       8.274       6.566       4.918       3.481       2.577       1.883       1.249      0.6252      2.0770E-03
   4    9.995       8.173       6.303       4.353       2.466       2.008       1.611       1.126      0.5785      1.9224E-03
   5    9.995       8.120       6.120       3.725      9.7067E-02   1.377       1.427       1.068      0.5606      1.8629E-03
   6    9.995       8.190       6.335       4.396       2.515       2.055       1.652       1.156      0.5942      1.9744E-03
   7    9.995       8.311       6.634       5.010       3.585       2.678       1.970       1.311      0.6579      2.1856E-03
   8    9.996       8.422       6.882       5.425       4.137       3.103       2.238       1.461      0.7238      2.4046E-03
   9    9.996       8.501       7.045       5.673       4.433       3.358       2.418       1.570      0.7743      2.5722E-03
  10    9.996       8.540       7.124       5.788       4.566       3.477       2.507       1.626      0.8010      2.6608E-03
1
              HEAD IN LAYER   3 AT END OF TIME STEP  96 IN STRESS PERIOD    3
  ---------------------------------------------------------------------------

            1           2           3           4           5           6           7           8           9          10
 ........................................................................................................................
   1    9.996       8.410       6.872       5.437       4.168       3.104       2.207       1.422      0.6985      2.3204E-03
   2    9.995       8.362       6.768       5.272       3.964       2.935       2.096       1.360      0.6714      2.2303E-03
   3    9.995       8.274       6.566       4.918       3.481       2.577       1.883       1.249      0.6252      2.0770E-03
   4    9.995       8.173       6.303       4.353       2.474       2.008       1.611       1.126      0.5785      1.9224E-03
   5    9.995       8.120       6.121       3.732      0.3402       1.385       1.427       1.068      0.5606      1.8629E-03
   6    9.995       8.190       6.335       4.396       2.523       2.056       1.652       1.156      0.5942      1.9744E-03
   7    9.995       8.311       6.634       5.010       3.585       2.678       1.970       1.311      0.6579      2.1856E-03
   8    9.996       8.422       6.882       5.425       4.137       3.103       2.238       1.461      0.7238      2.4046E-03
   9    9.996       8.501       7.045       5.673       4.433       3.358       2.418       1.570      0.7743      2.5722E-03
  10    9.996       8.540       7.124       5.788       4.566       3.477       2.507       1.626      0.8010      2.6608E-03

 HEAD WILL BE SAVED ON UNIT   51 AT END OF TIME STEP   96, STRESS PERIOD    3

 DRAWDOWN WILL BE SAVED ON UNIT   52 AT END OF TIME STEP   96, STRESS PERIOD    3
1
  VOLUMETRIC BUDGET FOR ENTIRE MODEL AT END OF TIME STEP   96, STRESS PERIOD   3
  ------------------------------------------------------------------------------

     CUMULATIVE VOLUMES      L**3       RATES FOR THIS TIME STEP      L**3/T
     ------------------                 ------------------------

           IN:                                      IN:
           ---                                      ---
             STORAGE =       30404.0039               STORAGE =           0.5515
       CONSTANT HEAD =           0.0000         CONSTANT HEAD =           0.0000
               WELLS =           0.0000                 WELLS =           0.0000
       RIVER LEAKAGE =      125234.8906         RIVER LEAKAGE =         832.5735

            TOTAL IN =      155638.8906              TOTAL IN =         833.1250

          OUT:                                     OUT:
          ----                                     ----
             STORAGE =       4.8255E-02               STORAGE =       5.0059E-04
       CONSTANT HEAD =           0.0000         CONSTANT HEAD =           0.0000
               WELLS =       48000.0000                 WELLS =         500.0000
       RIVER LEAKAGE =      107649.9766         RIVER LEAKAGE =         333.1578

           TOTAL OUT =      155650.0312             TOTAL OUT =         833.1583

            IN - OUT =         -11.1406              IN - OUT =      -3.3325E-02

 PERCENT DISCREPANCY =          -0.01     PERCENT DISCREPANCY =          -0.00






         TIME SUMMARY AT END OF TIME STEP   96 IN STRESS PERIOD    3
                    SECONDS     MINUTES      HOURS       DAYS        YEARS
                    -----------------------------------------------------------
   TIME STEP LENGTH  86400.      1440.0      24.000      1.0000     2.73785E-03
 STRESS PERIOD TIME 8.29440E+06 1.38240E+05  2304.0      96.000     0.26283    
         TOTAL TIME 1.70208E+07 2.83680E+05  4728.0      197.00     0.53936    
1

 SOLVING FOR HEAD 

 OUTPUT CONTROL FOR STRESS PERIOD    3   TIME STEP   97
    SAVE HEAD FOR ALL LAYERS
    SAVE DRAWDOWN FOR ALL LAYERS
    SAVE BUDGET
    PRINT HEAD FOR ALL LAYERS
    PRINT BUDGET
 UBDSV1 SAVING "         STORAGE" ON UNIT  53 AT TIME STEP 97, STRESS PERIOD   3
 UBDSV2 SAVING "   CONSTANT HEAD" ON UNIT  53 AT TIME STEP 97, STRESS PERIOD   3
 UBDSV1 SAVING "FLOW RIGHT FACE " ON UNIT  53 AT TIME STEP 97, STRESS PERIOD   3
 UBDSV1 SAVING "FLOW FRONT FACE " ON UNIT  53 AT TIME STEP 97, STRESS PERIOD   3
 UBDSV1 SAVING "FLOW LOWER FACE " ON UNIT  53 AT TIME STEP 97, STRESS PERIOD   3
1
              HEAD IN LAYER   1 AT END OF TIME STEP  97 IN STRESS PERIOD    3
  ---------------------------------------------------------------------------

            1           2           3           4           5           6           7           8           9          10
 ........................................................................................................................
   1    9.996       8.410       6.871       5.437       4.168       3.104       2.207       1.422      0.6985      2.3203E-03
   2    9.995       8.362       6.768       5.272       3.964       2.935       2.096       1.360      0.6714      2.2302E-03
   3    9.995       8.274       6.565       4.918       3.481       2.577       1.883       1.249      0.6251      2.0769E-03
   4    9.995       8.173       6.303       4.352       2.456       2.007       1.611       1.126      0.5785      1.9223E-03
   5    9.995       8.119       6.120       3.715     -0.4094       1.367       1.427       1.068      0.5605      1.8628E-03
   6    9.995       8.190       6.335       4.395       2.505       2.055       1.652       1.156      0.5941      1.9743E-03
   7    9.995       8.311       6.634       5.010       3.585       2.678       1.970       1.311      0.6578      2.1855E-03
   8    9.996       8.422       6.882       5.425       4.137       3.103       2.238       1.461      0.7238      2.4045E-03
   9    9.996       8.501       7.045       5.673       4.433       3.358       2.418       1.570      0.7743      2.5721E-03
  10    9.996       8.540       7.124       5.788       4.566       3.477       2.507       1.626      0.8010      2.6607E-03
1
              HEAD IN LAYER   2 AT END OF TIME STEP  97 IN STRESS PERIOD    3
  ---------------------------------------------------------------------------

            1           2           3           4           5           6           7           8           9          10
 ........................................................................................................................
   1    9.996       8.410       6.871       5.437       4.168       3.104       2.207       1.422      0.6985      2.3203E-03
   2    9.995       8.362       6.768       5.272       3.964       2.935       2.096       1.360      0.6714      2.2302E-03
   3    9.995       8.274       6.565       4.918       3.481       2.577       1.883       1.249      0.6251      2.0769E-03
   4    9.995       8.173       6.303       4.352       2.466       2.008       1.611       1.126      0.5785      1.9223E-03
   5    9.995       8.119       6.120       3.724      9.6848E-02   1.377       1.427       1.068      0.5605      1.8628E-03
   6    9.995       8.190       6.335       4.396       2.515       2.055       1.652       1.156      0.5941      1.9743E-03
   7    9.995       8.311       6.634       5.010       3.585       2.678       1.970       1.311      0.6578      2.1855E-03
   8    9.996       8.422       6.882       5.425       4.137       3.103       2.238       1.461      0.7238      2.4045E-03
   9    9.996       8.501       7.045       5.673       4.433       3.358       2.418       1.570      0.7743      2.5721E-03
  10    9.996       8.540       7.124       5.788       4.566       3.477       2.507       1.626      0.8010      2.6607E-03
1
              HEAD IN LAYER   3 AT END OF TIME STEP  97 IN STRESS PERIOD    3
  ---------------------------------------------------------------------------

            1           2           3           4           5           6           7           8           9          10
 ........................................................................................................................
   1    9.996       8.410       6.871       5.437       4.168       3.104       2.207       1.422      0.6985      2.3203E-03
   2    9.995       8.362       6.768       5.272       3.964       2.935       2.096       1.360      0.6714      2.2302E-03
   3    9.995       8.274       6.565       4.918       3.481       2.577       1.883       1.249      0.6251      2.0769E-03
   4    9.995       8.173       6.303       4.353       2.474       2.008       1.611       1.126      0.5785      1.9223E-03
   5    9.995       8.120       6.121       3.732      0.3400       1.385       1.427       1.068      0.5605      1.8628E-03
   6    9.995       8.190       6.335       4.396       2.523       2.056       1.652       1.156      0.5941      1.9743E-03
   7    9.995       8.311       6.634       5.010       3.585       2.678       1.970       1.311      0.6578      2.1855E-03
   8    9.996       8.422       6.882       5.425       4.137       3.103       2.238       1.461      0.7238      2.4045E-03
   9    9.996       8.501       7.045       5.673       4.433       3.358       2.418       1.570      0.7743      2.5721E-03
  10    9.996       8.540       7.124       5.788       4.566       3.477       2.507       1.626      0.8010      2.6607E-03

 HEAD WILL BE SAVED ON UNIT   51 AT END OF TIME STEP   97, STRESS PERIOD    3

 DRAWDOWN WILL BE SAVED ON UNIT   52 AT END OF TIME STEP   97, STRESS PERIOD    3
1
  VOLUMETRIC BUDGET FOR ENTIRE MODEL AT END OF TIME STEP   97, STRESS PERIOD   3
  ------------------------------------------------------------------------------

     CUMULATIVE VOLUMES      L**3       RATES FOR THIS TIME STEP      L**3/T
     ------------------                 ------------------------

           IN:                                      IN:
           ---                                      ---
             STORAGE =       30404.5234               STORAGE =           0.5192
       CONSTANT HEAD =           0.0000         CONSTANT HEAD =           0.0000
               WELLS =           0.0000                 WELLS =           0.0000
       RIVER LEAKAGE =      126067.4844         RIVER LEAKAGE =         832.5905

            TOTAL IN =      156472.0000              TOTAL IN =         833.1096

          OUT:                                     OUT:
          ----                                     ----
             STORAGE =       4.8801E-02               STORAGE =       5.4630E-04
       CONSTANT HEAD =           0.0000         CONSTANT HEAD =           0.0000
               WELLS =       48500.0000                 WELLS =         500.0000
       RIVER LEAKAGE =      107983.1172         RIVER LEAKAGE =         333.1427

           TOTAL OUT =      156483.1562             TOTAL OUT =         833.1432

            IN - OUT =         -11.1562              IN - OUT =      -3.3630E-02

 PERCENT DISCREPANCY =          -0.01     PERCENT DISCREPANCY =          -0.00






         TIME SUMMARY AT END OF TIME STEP   97 IN STRESS PERIOD    3
                    SECONDS     MINUTES      HOURS       DAYS        YEARS
                    -----------------------------------------------------------
   TIME STEP LENGTH  86400.      1440.0      24.000      1.0000     2.73785E-03
 STRESS PERIOD TIME 8.38080E+06 1.39680E+05  2328.0      97.000     0.26557    
         TOTAL TIME 1.71072E+07 2.85120E+05  4752.0      198.00     0.54209    
1

 SOLVING FOR HEAD 

 OUTPUT CONTROL FOR STRESS PERIOD    3   TIME STEP   98
    SAVE HEAD FOR ALL LAYERS
    SAVE DRAWDOWN FOR ALL LAYERS
    SAVE BUDGET
    PRINT HEAD FOR ALL LAYERS
    PRINT BUDGET
 UBDSV1 SAVING "         STORAGE" ON UNIT  53 AT TIME STEP 98, STRESS PERIOD   3
 UBDSV2 SAVING "   CONSTANT HEAD" ON UNIT  53 AT TIME STEP 98, STRESS PERIOD   3
 UBDSV1 SAVING "FLOW RIGHT FACE " ON UNIT  53 AT TIME STEP 98, STRESS PERIOD   3
 UBDSV1 SAVING "FLOW FRONT FACE " ON UNIT  53 AT TIME STEP 98, STRESS PERIOD   3
 UBDSV1 SAVING "FLOW LOWER FACE " ON UNIT  53 AT TIME STEP 98, STRESS PERIOD   3
1
              HEAD IN LAYER   1 AT END OF TIME STEP  98 IN STRESS PERIOD    3
  ---------------------------------------------------------------------------

            1           2           3           4           5           6           7           8           9          10
 ........................................................................................................................
   1    9.996       8.410       6.871       5.437       4.168       3.104       2.207       1.422      0.6985      2.3202E-03
   2    9.995       8.362       6.767       5.272       3.964       2.935       2.096       1.359      0.6713      2.2301E-03
   3    9.995       8.274       6.565       4.918       3.481       2.577       1.883       1.249      0.6251      2.0768E-03
   4    9.995       8.173       6.303       4.352       2.456       2.007       1.611       1.126      0.5785      1.9222E-03
   5    9.995       8.119       6.120       3.715     -0.4096       1.367       1.427       1.067      0.5605      1.8627E-03
   6    9.995       8.190       6.335       4.395       2.505       2.055       1.652       1.156      0.5941      1.9742E-03
   7    9.995       8.310       6.634       5.010       3.585       2.678       1.970       1.311      0.6578      2.1854E-03
   8    9.996       8.422       6.882       5.425       4.136       3.103       2.238       1.461      0.7238      2.4044E-03
   9    9.996       8.501       7.045       5.673       4.433       3.358       2.418       1.570      0.7743      2.5720E-03
  10    9.996       8.540       7.124       5.788       4.566       3.477       2.507       1.626      0.8009      2.6607E-03
1
              HEAD IN LAYER   2 AT END OF TIME STEP  98 IN STRESS PERIOD    3
  ---------------------------------------------------------------------------

            1           2           3           4           5           6           7           8           9          10
 ........................................................................................................................
   1    9.996       8.410       6.871       5.437       4.168       3.104       2.207       1.422      0.6985      2.3202E-03
   2    9.995       8.362       6.767       5.272       3.964       2.935       2.096       1.359      0.6713      2.2301E-03
   3    9.995       8.274       6.565       4.918       3.481       2.577       1.883       1.249      0.6251      2.0768E-03
   4    9.995       8.173       6.303       4.352       2.466       2.007       1.611       1.126      0.5785      1.9222E-03
   5    9.995       8.119       6.120       3.724      9.6641E-02   1.377       1.427       1.067      0.5605      1.8627E-03
   6    9.995       8.190       6.335       4.396       2.515       2.055       1.652       1.156      0.5941      1.9742E-03
   7    9.995       8.310       6.634       5.010       3.585       2.678       1.970       1.311      0.6578      2.1854E-03
   8    9.996       8.422       6.882       5.425       4.136       3.103       2.238       1.461      0.7238      2.4044E-03
   9    9.996       8.501       7.045       5.673       4.433       3.358       2.418       1.570      0.7743      2.5720E-03
  10    9.996       8.540       7.124       5.788       4.566       3.477       2.507       1.626      0.8009      2.6607E-03
1
              HEAD IN LAYER   3 AT END OF TIME STEP  98 IN STRESS PERIOD    3
  ---------------------------------------------------------------------------

            1           2           3           4           5           6           7           8           9          10
 ........................................................................................................................
   1    9.996       8.410       6.871       5.437       4.168       3.104       2.207       1.422      0.6985      2.3202E-03
   2    9.995       8.362       6.767       5.272       3.964       2.935       2.096       1.359      0.6713      2.2301E-03
   3    9.995       8.274       6.565       4.918       3.481       2.577       1.883       1.249      0.6251      2.0768E-03
   4    9.995       8.173       6.303       4.353       2.474       2.008       1.611       1.126      0.5785      1.9222E-03
   5    9.995       8.119       6.120       3.732      0.3398       1.385       1.427       1.067      0.5605      1.8627E-03
   6    9.995       8.190       6.335       4.396       2.523       2.056       1.652       1.156      0.5941      1.9741E-03
   7    9.995       8.310       6.634       5.010       3.585       2.678       1.970       1.311      0.6578      2.1854E-03
   8    9.996       8.422       6.882       5.425       4.136       3.103       2.238       1.461      0.7238      2.4044E-03
   9    9.996       8.501       7.045       5.673       4.433       3.358       2.418       1.570      0.7743      2.5720E-03
  10    9.996       8.540       7.124       5.788       4.566       3.477       2.507       1.626      0.8009      2.6606E-03

 HEAD WILL BE SAVED ON UNIT   51 AT END OF TIME STEP   98, STRESS PERIOD    3

 DRAWDOWN WILL BE SAVED ON UNIT   52 AT END OF TIME STEP   98, STRESS PERIOD    3
1
  VOLUMETRIC BUDGET FOR ENTIRE MODEL AT END OF TIME STEP   98, STRESS PERIOD   3
  ------------------------------------------------------------------------------

     CUMULATIVE VOLUMES      L**3       RATES FOR THIS TIME STEP      L**3/T
     ------------------                 ------------------------

           IN:                                      IN:
           ---                                      ---
             STORAGE =       30405.0137               STORAGE =           0.4894
       CONSTANT HEAD =           0.0000         CONSTANT HEAD =           0.0000
               WELLS =           0.0000                 WELLS =           0.0000
       RIVER LEAKAGE =      126900.0938         RIVER LEAKAGE =         832.6063

            TOTAL IN =      157305.1094              TOTAL IN =         833.0957

          OUT:                                     OUT:
          ----                                     ----
             STORAGE =       4.9369E-02               STORAGE =       5.6785E-04
       CONSTANT HEAD =           0.0000         CONSTANT HEAD =           0.0000
               WELLS =       49000.0000                 WELLS =         500.0000
       RIVER LEAKAGE =      108316.2422         RIVER LEAKAGE =         333.1286

           TOTAL OUT =      157316.2969             TOTAL OUT =         833.1292

            IN - OUT =         -11.1875              IN - OUT =      -3.3447E-02

 PERCENT DISCREPANCY =          -0.01     PERCENT DISCREPANCY =          -0.00






         TIME SUMMARY AT END OF TIME STEP   98 IN STRESS PERIOD    3
                    SECONDS     MINUTES      HOURS       DAYS        YEARS
                    -----------------------------------------------------------
   TIME STEP LENGTH  86400.      1440.0      24.000      1.0000     2.73785E-03
 STRESS PERIOD TIME 8.46720E+06 1.41120E+05  2352.0      98.000     0.26831    
         TOTAL TIME 1.71936E+07 2.86560E+05  4776.0      199.00     0.54483    
1

 SOLVING FOR HEAD 

 OUTPUT CONTROL FOR STRESS PERIOD    3   TIME STEP   99
    SAVE HEAD FOR ALL LAYERS
    SAVE DRAWDOWN FOR ALL LAYERS
    SAVE BUDGET
    PRINT HEAD FOR ALL LAYERS
    PRINT BUDGET
 UBDSV1 SAVING "         STORAGE" ON UNIT  53 AT TIME STEP 99, STRESS PERIOD   3
 UBDSV2 SAVING "   CONSTANT HEAD" ON UNIT  53 AT TIME STEP 99, STRESS PERIOD   3
 UBDSV1 SAVING "FLOW RIGHT FACE " ON UNIT  53 AT TIME STEP 99, STRESS PERIOD   3
 UBDSV1 SAVING "FLOW FRONT FACE " ON UNIT  53 AT TIME STEP 99, STRESS PERIOD   3
 UBDSV1 SAVING "FLOW LOWER FACE " ON UNIT  53 AT TIME STEP 99, STRESS PERIOD   3
1
              HEAD IN LAYER   1 AT END OF TIME STEP  99 IN STRESS PERIOD    3
  ---------------------------------------------------------------------------

            1           2           3           4           5           6           7           8           9          10
 ........................................................................................................................
   1    9.996       8.409       6.871       5.437       4.168       3.103       2.207       1.422      0.6984      2.3201E-03
   2    9.995       8.362       6.767       5.271       3.964       2.935       2.096       1.359      0.6713      2.2300E-03
   3    9.995       8.274       6.565       4.917       3.481       2.577       1.883       1.248      0.6251      2.0767E-03
   4    9.995       8.173       6.303       4.352       2.456       2.007       1.611       1.126      0.5785      1.9221E-03
   5    9.995       8.119       6.120       3.714     -0.4098       1.367       1.426       1.067      0.5605      1.8626E-03
   6    9.995       8.190       6.335       4.395       2.505       2.055       1.652       1.156      0.5941      1.9741E-03
   7    9.995       8.310       6.634       5.010       3.584       2.678       1.970       1.311      0.6578      2.1853E-03
   8    9.996       8.422       6.882       5.425       4.136       3.102       2.238       1.461      0.7237      2.4043E-03
   9    9.996       8.501       7.045       5.673       4.433       3.358       2.418       1.570      0.7742      2.5719E-03
  10    9.996       8.540       7.124       5.788       4.566       3.477       2.507       1.626      0.8009      2.6606E-03
1
              HEAD IN LAYER   2 AT END OF TIME STEP  99 IN STRESS PERIOD    3
  ---------------------------------------------------------------------------

            1           2           3           4           5           6           7           8           9          10
 ........................................................................................................................
   1    9.996       8.409       6.871       5.437       4.168       3.103       2.207       1.422      0.6984      2.3201E-03
   2    9.995       8.362       6.767       5.271       3.964       2.935       2.096       1.359      0.6713      2.2300E-03
   3    9.995       8.274       6.565       4.918       3.481       2.577       1.883       1.248      0.6251      2.0767E-03
   4    9.995       8.173       6.303       4.352       2.466       2.007       1.611       1.126      0.5785      1.9221E-03
   5    9.995       8.119       6.120       3.724      9.6446E-02   1.377       1.427       1.067      0.5605      1.8626E-03
   6    9.995       8.190       6.335       4.396       2.515       2.055       1.652       1.156      0.5941      1.9741E-03
   7    9.995       8.310       6.634       5.010       3.585       2.678       1.970       1.311      0.6578      2.1853E-03
   8    9.996       8.422       6.882       5.425       4.136       3.102       2.238       1.461      0.7237      2.4043E-03
   9    9.996       8.501       7.045       5.673       4.433       3.358       2.418       1.570      0.7742      2.5719E-03
  10    9.996       8.540       7.124       5.788       4.566       3.477       2.507       1.626      0.8009      2.6606E-03
1
              HEAD IN LAYER   3 AT END OF TIME STEP  99 IN STRESS PERIOD    3
  ---------------------------------------------------------------------------

            1           2           3           4           5           6           7           8           9          10
 ........................................................................................................................
   1    9.996       8.409       6.871       5.437       4.168       3.103       2.207       1.422      0.6984      2.3201E-03
   2    9.995       8.362       6.767       5.271       3.964       2.935       2.096       1.359      0.6713      2.2300E-03
   3    9.995       8.274       6.565       4.918       3.481       2.577       1.883       1.248      0.6251      2.0767E-03
   4    9.995       8.173       6.303       4.353       2.474       2.008       1.611       1.126      0.5785      1.9221E-03
   5    9.995       8.119       6.120       3.732      0.3396       1.385       1.427       1.067      0.5605      1.8626E-03
   6    9.995       8.190       6.335       4.396       2.523       2.056       1.652       1.156      0.5941      1.9741E-03
   7    9.995       8.310       6.634       5.010       3.585       2.678       1.970       1.311      0.6578      2.1853E-03
   8    9.996       8.422       6.882       5.425       4.136       3.102       2.238       1.461      0.7237      2.4043E-03
   9    9.996       8.501       7.045       5.673       4.433       3.358       2.418       1.570      0.7742      2.5719E-03
  10    9.996       8.540       7.124       5.788       4.566       3.477       2.507       1.626      0.8009      2.6606E-03

 HEAD WILL BE SAVED ON UNIT   51 AT END OF TIME STEP   99, STRESS PERIOD    3

 DRAWDOWN WILL BE SAVED ON UNIT   52 AT END OF TIME STEP   99, STRESS PERIOD    3
1
  VOLUMETRIC BUDGET FOR ENTIRE MODEL AT END OF TIME STEP   99, STRESS PERIOD   3
  ------------------------------------------------------------------------------

     CUMULATIVE VOLUMES      L**3       RATES FOR THIS TIME STEP      L**3/T
     ------------------                 ------------------------

           IN:                                      IN:
           ---                                      ---
             STORAGE =       30405.4746               STORAGE =           0.4609
       CONSTANT HEAD =           0.0000         CONSTANT HEAD =           0.0000
               WELLS =           0.0000                 WELLS =           0.0000
       RIVER LEAKAGE =      127732.7188         RIVER LEAKAGE =         832.6213

            TOTAL IN =      158138.1875              TOTAL IN =         833.0822

          OUT:                                     OUT:
          ----                                     ----
             STORAGE =       4.9928E-02               STORAGE =       5.5915E-04
       CONSTANT HEAD =           0.0000         CONSTANT HEAD =           0.0000
               WELLS =       49500.0000                 WELLS =         500.0000
       RIVER LEAKAGE =      108649.3594         RIVER LEAKAGE =         333.1152

           TOTAL OUT =      158149.4062             TOTAL OUT =         833.1157

            IN - OUT =         -11.2188              IN - OUT =      -3.3508E-02

 PERCENT DISCREPANCY =          -0.01     PERCENT DISCREPANCY =          -0.00






         TIME SUMMARY AT END OF TIME STEP   99 IN STRESS PERIOD    3
                    SECONDS     MINUTES      HOURS       DAYS        YEARS
                    -----------------------------------------------------------
   TIME STEP LENGTH  86400.      1440.0      24.000      1.0000     2.73785E-03
 STRESS PERIOD TIME 8.55360E+06 1.42560E+05  2376.0      99.000     0.27105    
         TOTAL TIME 1.72800E+07 2.88000E+05  4800.0      200.00     0.54757    
1

 SOLVING FOR HEAD 

 OUTPUT CONTROL FOR STRESS PERIOD    3   TIME STEP  100
    SAVE HEAD FOR ALL LAYERS
    SAVE DRAWDOWN FOR ALL LAYERS
    SAVE BUDGET
    PRINT HEAD FOR ALL LAYERS
    PRINT BUDGET
 UBDSV1 SAVING "         STORAGE" ON UNIT  53 AT TIME STEP100, STRESS PERIOD   3
 UBDSV2 SAVING "   CONSTANT HEAD" ON UNIT  53 AT TIME STEP100, STRESS PERIOD   3
 UBDSV1 SAVING "FLOW RIGHT FACE " ON UNIT  53 AT TIME STEP100, STRESS PERIOD   3
 UBDSV1 SAVING "FLOW FRONT FACE " ON UNIT  53 AT TIME STEP100, STRESS PERIOD   3
 UBDSV1 SAVING "FLOW LOWER FACE " ON UNIT  53 AT TIME STEP100, STRESS PERIOD   3
1
              HEAD IN LAYER   1 AT END OF TIME STEP 100 IN STRESS PERIOD    3
  ---------------------------------------------------------------------------

            1           2           3           4           5           6           7           8           9          10
 ........................................................................................................................
   1    9.996       8.409       6.871       5.437       4.168       3.103       2.207       1.422      0.6984      2.3200E-03
   2    9.995       8.362       6.767       5.271       3.964       2.935       2.096       1.359      0.6713      2.2300E-03
   3    9.995       8.274       6.565       4.917       3.481       2.576       1.883       1.248      0.6251      2.0766E-03
   4    9.995       8.173       6.303       4.352       2.456       2.007       1.611       1.126      0.5784      1.9220E-03
   5    9.995       8.119       6.120       3.714     -0.4100       1.367       1.426       1.067      0.5604      1.8625E-03
   6    9.995       8.190       6.335       4.395       2.505       2.055       1.652       1.156      0.5941      1.9740E-03
   7    9.995       8.310       6.634       5.010       3.584       2.678       1.970       1.311      0.6577      2.1852E-03
   8    9.996       8.422       6.882       5.425       4.136       3.102       2.238       1.461      0.7237      2.4042E-03
   9    9.996       8.501       7.045       5.673       4.433       3.358       2.418       1.570      0.7742      2.5719E-03
  10    9.996       8.540       7.124       5.788       4.566       3.477       2.507       1.626      0.8009      2.6605E-03
1
              HEAD IN LAYER   2 AT END OF TIME STEP 100 IN STRESS PERIOD    3
  ---------------------------------------------------------------------------

            1           2           3           4           5           6           7           8           9          10
 ........................................................................................................................
   1    9.996       8.409       6.871       5.437       4.168       3.103       2.207       1.422      0.6984      2.3200E-03
   2    9.995       8.362       6.767       5.271       3.964       2.935       2.096       1.359      0.6713      2.2300E-03
   3    9.995       8.274       6.565       4.917       3.481       2.576       1.883       1.248      0.6251      2.0766E-03
   4    9.995       8.173       6.303       4.352       2.466       2.007       1.611       1.126      0.5784      1.9220E-03
   5    9.995       8.119       6.120       3.724      9.6262E-02   1.377       1.427       1.067      0.5604      1.8625E-03
   6    9.995       8.190       6.335       4.396       2.515       2.055       1.652       1.156      0.5941      1.9740E-03
   7    9.995       8.310       6.634       5.010       3.585       2.678       1.970       1.311      0.6577      2.1852E-03
   8    9.996       8.422       6.882       5.425       4.136       3.102       2.238       1.461      0.7237      2.4042E-03
   9    9.996       8.501       7.045       5.673       4.433       3.358       2.418       1.570      0.7742      2.5719E-03
  10    9.996       8.540       7.124       5.788       4.566       3.477       2.507       1.626      0.8009      2.6605E-03
1
              HEAD IN LAYER   3 AT END OF TIME STEP 100 IN STRESS PERIOD    3
  ---------------------------------------------------------------------------

            1           2           3           4           5           6           7           8           9          10
 ........................................................................................................................
   1    9.996       8.409       6.871       5.437       4.168       3.103       2.207       1.422      0.6984      2.3200E-03
   2    9.995       8.362       6.767       5.271       3.964       2.935       2.096       1.359      0.6713      2.2300E-03
   3    9.995       8.274       6.565       4.917       3.481       2.577       1.883       1.248      0.6251      2.0766E-03
   4    9.995       8.173       6.303       4.353       2.474       2.008       1.611       1.126      0.5784      1.9220E-03
   5    9.995       8.119       6.120       3.732      0.3395       1.385       1.427       1.067      0.5604      1.8625E-03
   6    9.995       8.190       6.335       4.396       2.523       2.055       1.652       1.156      0.5941      1.9740E-03
   7    9.995       8.310       6.634       5.010       3.585       2.678       1.970       1.311      0.6577      2.1852E-03
   8    9.996       8.422       6.882       5.425       4.136       3.102       2.238       1.461      0.7237      2.4042E-03
   9    9.996       8.501       7.045       5.673       4.433       3.358       2.418       1.570      0.7742      2.5719E-03
  10    9.996       8.540       7.124       5.788       4.566       3.477       2.507       1.626      0.8009      2.6605E-03

 HEAD WILL BE SAVED ON UNIT   51 AT END OF TIME STEP  100, STRESS PERIOD    3

 DRAWDOWN WILL BE SAVED ON UNIT   52 AT END OF TIME STEP  100, STRESS PERIOD    3
1
  VOLUMETRIC BUDGET FOR ENTIRE MODEL AT END OF TIME STEP  100, STRESS PERIOD   3
  ------------------------------------------------------------------------------

     CUMULATIVE VOLUMES      L**3       RATES FOR THIS TIME STEP      L**3/T
     ------------------                 ------------------------

           IN:                                      IN:
           ---                                      ---
             STORAGE =       30405.9082               STORAGE =           0.4341
       CONSTANT HEAD =           0.0000         CONSTANT HEAD =           0.0000
               WELLS =           0.0000                 WELLS =           0.0000
       RIVER LEAKAGE =      128565.3516         RIVER LEAKAGE =         832.6354

            TOTAL IN =      158971.2656              TOTAL IN =         833.0695

          OUT:                                     OUT:
          ----                                     ----
             STORAGE =       5.0536E-02               STORAGE =       6.0766E-04
       CONSTANT HEAD =           0.0000         CONSTANT HEAD =           0.0000
               WELLS =       50000.0000                 WELLS =         500.0000
       RIVER LEAKAGE =      108982.4609         RIVER LEAKAGE =         333.1026

           TOTAL OUT =      158982.5156             TOTAL OUT =         833.1031

            IN - OUT =         -11.2500              IN - OUT =      -3.3630E-02

 PERCENT DISCREPANCY =          -0.01     PERCENT DISCREPANCY =          -0.00






         TIME SUMMARY AT END OF TIME STEP  100 IN STRESS PERIOD    3
                    SECONDS     MINUTES      HOURS       DAYS        YEARS
                    -----------------------------------------------------------
   TIME STEP LENGTH  86400.      1440.0      24.000      1.0000     2.73785E-03
 STRESS PERIOD TIME 8.64000E+06 1.44000E+05  2400.0      100.00     0.27379    
         TOTAL TIME 1.73664E+07 2.89440E+05  4824.0      201.00     0.55031    
1

 Run end date and time (yyyy/mm/dd hh:mm:ss): 2015/10/26 15:49:10
 Elapsed run time:  0.180 Seconds

